{
 "User": "lib",
 "Queues": "all",
 "Clusters": [
  "aip"
 ],
 "Month": "2020-10",
 "CPU_Hours": 19.802066310580003,
 "Mem_GB_Hours": 0.14767001817610495,
 "GPU_Hours": 0.10166666666666666,
 "App_Cost": 98.8664426640111,
 "CPU_Cost": 9.901033155290001,
 "Mem_Cost": 0,
 "GPU_Cost": 0.05083333333333333,
 "Total_Cost": 184.22724362679998,
 "App_Hours": {
  "Abaqus": {
   "Hours": 0.07222222222222222,
   "Cost": 0.36111111111111105
  },
  "AnsysAPDL": {
   "Hours": 0.0275,
   "Cost": 0.1375
  },
  "FluentMeshing": {
   "Hours": 0.013333333333333334,
   "Cost": 0
  },
  "LS-DYNA": {
   "Hours": 19.624010755024447,
   "Cost": 98.1200537751222
  },
  "LSPrePost": {
   "Hours": 0.009444444444444445,
   "Cost": 0
  },
  "ParaView": {
   "Hours": 0.006666666666666667,
   "Cost": 0.0033333333333333335
  },
  "StarCCM": {
   "Hours": 0.04888888888888889,
   "Cost": 0.24444444444444446
  }
 },
 "Details": [
  {
   "CPU_Hours": 2.170117053673333,
   "Mem_GB_Hours": 0.0014758846387994723,
   "GPU_Hours": 0,
   "Runtime": 0.1808430878061111,
   "App_Hours": 2.170117053673333,
   "JobId": "15128",
   "Queue": "q_x86_cn_sim",
   "User": "lib",
   "App": "LS-DYNA",
   "JobDescription": "Batch-LS-DYNA",
   "JobName": "/home/export/online3/amd_share/shangruan/bin/dynayaml /home/export/base/nsccwuxi_hust/lib/WORK/sim/BXG.k single",
   "Cluster": "aip",
   "CPU_Cost": 1.0850585268366666,
   "Mem_Cost": 0,
   "GPU_Cost": 0,
   "App_Cost": 10.850585268366668,
   "StartDate": "2020/10/29",
   "Project": "default"
  },
  {
   "CPU_Hours": 0.03333333333333333,
   "Mem_GB_Hours": 0.00003924899631076389,
   "GPU_Hours": 0,
   "Runtime": 0.002777777777777778,
   "App_Hours": 0.03333333333333333,
   "JobId": "15130",
   "Queue": "q_x86_cn_sim",
   "User": "lib",
   "App": "LS-DYNA",
   "JobDescription": "Batch-LS-DYNA",
   "JobName": "/home/export/online3/amd_share/shangruan/bin/dynayaml /home/export/base/nsccwuxi_hust/lib/WORK/Dynaform/result1/BXG1029.k single",
   "Cluster": "aip",
   "CPU_Cost": 0.016666666666666666,
   "Mem_Cost": 0,
   "GPU_Cost": 0,
   "App_Cost": 0.16666666666666666,
   "StartDate": "2020/10/29",
   "Project": "default"
  },
  {
   "CPU_Hours": 2.870152695336667,
   "Mem_GB_Hours": 0.002603396023997631,
   "GPU_Hours": 0,
   "Runtime": 0.23917939127805557,
   "App_Hours": 2.870152695336667,
   "JobId": "15131",
   "Queue": "q_x86_cn_sim",
   "User": "lib",
   "App": "LS-DYNA",
   "JobDescription": "Batch-LS-DYNA",
   "JobName": "/home/export/online3/amd_share/shangruan/bin/dynayaml /home/export/base/nsccwuxi_hust/lib/WORK/Dynaform/result1/BXG1029_op10.k single",
   "Cluster": "aip",
   "CPU_Cost": 1.4350763476683335,
   "Mem_Cost": 0,
   "GPU_Cost": 0,
   "App_Cost": 14.350763476683335,
   "StartDate": "2020/10/29",
   "Project": "default"
  },
  {
   "CPU_Hours": 6.386806767977777,
   "Mem_GB_Hours": 0.0041257126386089,
   "GPU_Hours": 0,
   "Runtime": 0.3991754229986111,
   "App_Hours": 6.386806767977777,
   "JobId": "15007",
   "Queue": "q_x86_expr",
   "User": "lib",
   "App": "LS-DYNA",
   "JobDescription": "Batch-LS-DYNA",
   "JobName": "/home/export/online3/amd_share/shangruan/bin/dynayaml /home/export/base/nsccwuxi_hust/lib/WORK/lsdyna-test/BXG.k single",
   "Cluster": "aip",
   "CPU_Cost": 3.1934033839888887,
   "Mem_Cost": 0,
   "GPU_Cost": 0,
   "App_Cost": 31.934033839888887,
   "StartDate": "2020/10/28",
   "Project": "default"
  },
  {
   "CPU_Hours": 7.626934238036666,
   "Mem_GB_Hours": 0.005799443065549096,
   "GPU_Hours": 0,
   "Runtime": 0.6355778531697223,
   "App_Hours": 7.626934238036666,
   "JobId": "15010",
   "Queue": "q_x86_vio_share",
   "User": "lib",
   "App": "LS-DYNA",
   "JobDescription": "Batch-LS-DYNA",
   "JobName": "/home/export/online3/amd_share/shangruan/bin/dynayaml /home/export/base/nsccwuxi_hust/lib/WORK/112/BXG.k single",
   "Cluster": "aip",
   "CPU_Cost": 3.813467119018333,
   "Mem_Cost": 0,
   "GPU_Cost": 0,
   "App_Cost": 38.13467119018333,
   "StartDate": "2020/10/28",
   "Project": "default"
  },
  {
   "CPU_Hours": 0.006666666666666667,
   "Mem_GB_Hours": 0.002949473063151042,
   "GPU_Hours": 0.006666666666666667,
   "Runtime": 0.006666666666666667,
   "App_Hours": 0.006666666666666667,
   "JobId": "15002",
   "Queue": "local",
   "User": "lib",
   "App": "ParaView",
   "JobDescription": "ParaView",
   "JobName": "cubevnc",
   "Cluster": "aip",
   "CPU_Cost": 0.0033333333333333335,
   "Mem_Cost": 0,
   "GPU_Cost": 0.0033333333333333335,
   "App_Cost": 0.0033333333333333335,
   "StartDate": "2020/10/28",
   "Project": "default"
  },
  {
   "CPU_Hours": 0.003333333333333333,
   "Mem_GB_Hours": 0.000003923839992947049,
   "GPU_Hours": 0,
   "Runtime": 0.0002777777777777778,
   "App_Hours": 0.003333333333333333,
   "JobId": "15136",
   "Queue": "q_x86_cn_sim",
   "User": "lib",
   "App": "LS-DYNA",
   "JobDescription": "Batch-LS-DYNA",
   "JobName": "/home/export/online3/amd_share/shangruan/bin/dynayaml /home/export/base/nsccwuxi_hust/lib/WORK/Dynaform/result1/BXG1029_op10.k single",
   "Cluster": "aip",
   "CPU_Cost": 0.0016666666666666666,
   "Mem_Cost": 0,
   "GPU_Cost": 0,
   "App_Cost": 0.016666666666666666,
   "StartDate": "2020/10/29",
   "Project": "default"
  },
  {
   "CPU_Hours": 0.5333333333333333,
   "Mem_GB_Hours": 0.0006279839409722223,
   "GPU_Hours": 0,
   "Runtime": 0.044444444444444446,
   "App_Hours": 0.5333333333333333,
   "JobId": "15140",
   "Queue": "q_x86_vio_share",
   "User": "lib",
   "App": "LS-DYNA",
   "JobDescription": "Batch-LS-DYNA",
   "JobName": "/home/export/online3/amd_share/shangruan/bin/dynayaml /home/export/base/nsccwuxi_hust/lib/WORK/Dynaform/1/BXG1029_op10.k single",
   "Cluster": "aip",
   "CPU_Cost": 0.26666666666666666,
   "Mem_Cost": 0,
   "GPU_Cost": 0,
   "App_Cost": 2.6666666666666665,
   "StartDate": "2020/10/29",
   "Project": "default"
  },
  {
   "CPU_Hours": 0.07222222222222222,
   "Mem_GB_Hours": 0.03736907111273871,
   "GPU_Hours": 0.07222222222222222,
   "Runtime": 0.07222222222222222,
   "App_Hours": 0.07222222222222222,
   "JobId": "15008",
   "Queue": "local",
   "User": "lib",
   "App": "Abaqus",
   "JobDescription": "Abaqus",
   "JobName": "cubevnc",
   "Cluster": "aip",
   "CPU_Cost": 0.03611111111111111,
   "Mem_Cost": 0,
   "GPU_Cost": 0.03611111111111111,
   "App_Cost": 0.36111111111111105,
   "StartDate": "2020/10/28",
   "Project": "default"
  },
  {
   "CPU_Hours": 0,
   "Mem_GB_Hours": 0,
   "GPU_Hours": 0,
   "Runtime": 0,
   "App_Hours": 0,
   "JobId": "15132",
   "Queue": "q_x86_cn_sim",
   "User": "lib",
   "App": "LS-DYNA",
   "JobDescription": "Batch-LS-DYNA",
   "JobName": "/home/export/online3/amd_share/shangruan/bin/dynayaml /home/export/base/nsccwuxi_hust/lib/WORK/Dynaform/result1/BXG1029_op20.k single",
   "Cluster": "aip",
   "CPU_Cost": 0,
   "Mem_Cost": 0,
   "GPU_Cost": 0,
   "App_Cost": 0,
   "StartDate": "2020/10/29",
   "Project": "default"
  },
  {
   "CPU_Hours": 0.0275,
   "Mem_GB_Hours": 0.002357196807861328,
   "GPU_Hours": 0,
   "Runtime": 0.0275,
   "App_Hours": 0.0275,
   "JobId": "15005",
   "Queue": "q_x86_expr",
   "User": "lib",
   "App": "AnsysAPDL",
   "JobDescription": "AnsysAPDL",
   "JobName": "cubevnc",
   "Cluster": "aip",
   "CPU_Cost": 0.01375,
   "Mem_Cost": 0,
   "GPU_Cost": 0,
   "App_Cost": 0.1375,
   "StartDate": "2020/10/28",
   "Project": "default"
  },
  {
   "CPU_Hours": 0.013333333333333334,
   "Mem_GB_Hours": 0.08432225545247396,
   "GPU_Hours": 0.013333333333333334,
   "Runtime": 0.013333333333333334,
   "App_Hours": 0.013333333333333334,
   "JobId": "15004",
   "Queue": "local",
   "User": "lib",
   "App": "FluentMeshing",
   "JobDescription": "FluentMeshing",
   "JobName": "cubevnc",
   "Cluster": "aip",
   "CPU_Cost": 0.006666666666666667,
   "Mem_Cost": 0,
   "GPU_Cost": 0.006666666666666667,
   "App_Cost": 0,
   "StartDate": "2020/10/28",
   "Project": "default"
  },
  {
   "CPU_Hours": 0.009444444444444445,
   "Mem_GB_Hours": 0.0031954405042860243,
   "GPU_Hours": 0.009444444444444445,
   "Runtime": 0.009444444444444445,
   "App_Hours": 0.009444444444444445,
   "JobId": "15001",
   "Queue": "local",
   "User": "lib",
   "App": "LSPrePost",
   "JobDescription": "xEUPlE7O",
   "JobName": "cubevnc",
   "Cluster": "aip",
   "CPU_Cost": 0.004722222222222222,
   "Mem_Cost": 0,
   "GPU_Cost": 0.004722222222222222,
   "App_Cost": 0,
   "StartDate": "2020/10/28",
   "Project": "default"
  },
  {
   "CPU_Hours": 0.04888888888888889,
   "Mem_GB_Hours": 0.0028009880913628473,
   "GPU_Hours": 0,
   "Runtime": 0.024444444444444446,
   "App_Hours": 0.04888888888888889,
   "JobId": "15003",
   "Queue": "q_x86_expr_plus",
   "User": "lib",
   "App": "StarCCM",
   "JobDescription": "StarCCM",
   "JobName": "cubevnc",
   "Cluster": "aip",
   "CPU_Cost": 0.024444444444444446,
   "Mem_Cost": 0,
   "GPU_Cost": 0,
   "App_Cost": 0.24444444444444446,
   "StartDate": "2020/10/28",
   "Project": "default"
  }
 ]
}