{
 "User": "amd_app",
 "Queues": "all",
 "Clusters": [
  "aip"
 ],
 "Month": "2020-11",
 "CPU_Hours": 1466.1869676981903,
 "Mem_GB_Hours": 163.24440611440525,
 "GPU_Hours": 205.71508463042142,
 "App_Cost": 0,
 "CPU_Cost": 733.0932060713174,
 "Mem_Cost": 0,
 "GPU_Cost": 102.85754231521071,
 "Total_Cost": 1418.9158399297542,
 "App_Hours": {
  "Abaqus": {
   "Hours": 14.887800531216111,
   "Cost": 0
  },
  "AnsysAPDL": {
   "Hours": 7.124119429338889,
   "Cost": 0
  },
  "CFD-POST": {
   "Hours": 0.025555555555555554,
   "Cost": 0
  },
  "CFD-POST2020": {
   "Hours": 0.009722222222222222,
   "Cost": 0
  },
  "CFX": {
   "Hours": 0.6356510764411111,
   "Cost": 0
  },
  "CFX-pre": {
   "Hours": 8.253962499306667,
   "Cost": 0
  },
  "CFX-pre2020": {
   "Hours": 0.08138888888888889,
   "Cost": 0
  },
  "CFX2020": {
   "Hours": 0.04111111111111111,
   "Cost": 0
  },
  "Fluent": {
   "Hours": 62.34563921307307,
   "Cost": 0
  },
  "FluentMesh2020": {
   "Hours": 4.134325400513333,
   "Cost": 0
  },
  "FluentMeshing": {
   "Hours": 18.000503160731395,
   "Cost": 0
  },
  "Hypermesh": {
   "Hours": 0.05111111111111111,
   "Cost": 0
  },
  "ICEM-CFD": {
   "Hours": 0.3216773979280555,
   "Cost": 0
  },
  "ICEPAK": {
   "Hours": 20.777878544153047,
   "Cost": 0
  },
  "ICESimulator": {
   "Hours": 64.38476688333469,
   "Cost": 0
  },
  "LS-DYNA": {
   "Hours": 0.5472222222222223,
   "Cost": 0
  },
  "LSPrePost": {
   "Hours": 2.0031348394674997,
   "Cost": 0
  },
  "ParaView": {
   "Hours": 81.85256784488115,
   "Cost": 0
  },
  "PointWise": {
   "Hours": 38.30217041910391,
   "Cost": 0
  },
  "SWOF": {
   "Hours": 0.8158333333333334,
   "Cost": 0
  },
  "StarCCM": {
   "Hours": 1018.9794237615538,
   "Cost": 0
  },
  "TankSim": {
   "Hours": 12.787221581485277,
   "Cost": 0
  }
 },
 "Details": [
  {
   "CPU_Hours": 0.0019444444444444444,
   "Mem_GB_Hours": 0.00003664970397949219,
   "GPU_Hours": 0,
   "Runtime": 0.0019444444444444444,
   "App_Hours": 0.0019444444444444444,
   "JobId": "15623",
   "Queue": "q_x86_cn_sim",
   "User": "amd_app",
   "App": "ICESimulator",
   "JobName": "/home/export/online3/amd_share/anaconda/bin/python3 /home/export/online3/amd_app/wxy/cas2fe/generate.py /home/export/online3/amd_app/wxy/foamextend_project/icepak_test jixiang_nomerge.cas",
   "Cluster": "aip",
   "CPU_Cost": 0.0009722222222222222,
   "Mem_Cost": 0,
   "GPU_Cost": 0,
   "App_Cost": 0,
   "StartDate": "2020/11/02",
   "Project": "default"
  },
  {
   "CPU_Hours": 0.035555555555555556,
   "Mem_GB_Hours": 0.004440375434027778,
   "GPU_Hours": 0,
   "Runtime": 0.035555555555555556,
   "App_Hours": 0.035555555555555556,
   "JobId": "16390",
   "Queue": "local",
   "User": "amd_app",
   "JobName": "cubevnc",
   "Cluster": "aip",
   "CPU_Cost": 0.017777777777777778,
   "Mem_Cost": 0,
   "GPU_Cost": 0,
   "App_Cost": 0,
   "StartDate": "2020/11/12",
   "Project": "default"
  },
  {
   "CPU_Hours": 0.44,
   "Mem_GB_Hours": 0.010560073852539063,
   "GPU_Hours": 0,
   "Runtime": 0.055,
   "App_Hours": 0.44,
   "JobId": "18557",
   "Queue": "q_x86_share",
   "User": "amd_app",
   "App": "ICESimulator",
   "JobDescription": "pcb200",
   "JobName": "/home/export/online3/amd_share/anaconda/bin/python3 /home/export/online3/amd_app/wxy/cas2foam/generate.py q_x86_share 8 100 20 /home/export/online3/amd_app/IcesimProject/pcb200 pcb200.cas",
   "Cluster": "aip",
   "CPU_Cost": 0.22,
   "Mem_Cost": 0,
   "GPU_Cost": 0,
   "App_Cost": 0,
   "StartDate": "2020/11/27",
   "Project": "default"
  },
  {
   "CPU_Hours": 0.010555555555555556,
   "Mem_GB_Hours": 0.00009941736857096354,
   "GPU_Hours": 0,
   "Runtime": 0.010555555555555556,
   "App_Hours": 0.010555555555555556,
   "JobId": "18355",
   "Queue": "q_x86_expr",
   "User": "amd_app",
   "App": "SWOF",
   "JobDescription": "SWOF_decomposePar",
   "JobName": "swof_/home/export/base/nsccwuxi_amd/amd_app/WORK/Zhouhl/Project/OF/OpenFOAM-GUI/OF_test_Decompose24927",
   "Cluster": "aip",
   "CPU_Cost": 0.005277777777777778,
   "Mem_Cost": 0,
   "GPU_Cost": 0,
   "App_Cost": 0,
   "StartDate": "2020/11/26",
   "Project": "default"
  },
  {
   "CPU_Hours": 0,
   "Mem_GB_Hours": 0,
   "GPU_Hours": 0,
   "Runtime": 0,
   "App_Hours": 0,
   "JobId": "17080",
   "Queue": "q_x86_expr",
   "User": "amd_app",
   "JobName": "pwd",
   "Cluster": "aip",
   "CPU_Cost": 0,
   "Mem_Cost": 0,
   "GPU_Cost": 0,
   "App_Cost": 0,
   "StartDate": "2020/11/17",
   "Project": "default"
  },
  {
   "CPU_Hours": 1.445898341332778,
   "Mem_GB_Hours": 0.33964022938662414,
   "GPU_Hours": 1.445898341332778,
   "Runtime": 1.445898341332778,
   "App_Hours": 1.445898341332778,
   "JobId": "15640",
   "Queue": "local",
   "User": "amd_app",
   "App": "ICEPAK",
   "JobDescription": "ICEPAK",
   "JobName": "cubevnc",
   "Cluster": "aip",
   "CPU_Cost": 0.722949170666389,
   "Mem_Cost": 0,
   "GPU_Cost": 0.722949170666389,
   "App_Cost": 0,
   "StartDate": "2020/11/02",
   "Project": "default"
  },
  {
   "CPU_Hours": 0.185,
   "Mem_GB_Hours": 0.013794297112358942,
   "GPU_Hours": 0,
   "Runtime": 0.020555555555555556,
   "App_Hours": 0.185,
   "JobId": "17329",
   "Queue": "q_x86_cn_sim_plus",
   "User": "amd_app",
   "App": "StarCCM",
   "JobDescription": "22",
   "JobName": "cubevnc",
   "Cluster": "aip",
   "CPU_Cost": 0.0925,
   "Mem_Cost": 0,
   "GPU_Cost": 0,
   "App_Cost": 0,
   "StartDate": "2020/11/19",
   "Project": "default"
  },
  {
   "CPU_Hours": 0.01611111111111111,
   "Mem_GB_Hours": 0.0012069320678710937,
   "GPU_Hours": 0,
   "Runtime": 0.01611111111111111,
   "App_Hours": 0.01611111111111111,
   "JobId": "15629",
   "Queue": "q_x86_cn_sim",
   "User": "amd_app",
   "App": "ICESimulator",
   "JobName": "/home/export/online3/amd_share/anaconda/bin/python3 /home/export/online3/amd_app/wxy/cas2foam/generate.py /home/export/online3/amd_app/wxy/foamextend_project/icepak_test jixiang_nomerge.cas",
   "Cluster": "aip",
   "CPU_Cost": 0.008055555555555555,
   "Mem_Cost": 0,
   "GPU_Cost": 0,
   "App_Cost": 0,
   "StartDate": "2020/11/02",
   "Project": "default"
  },
  {
   "CPU_Hours": 0.0044444444444444444,
   "Mem_GB_Hours": 0.0000031492445203993057,
   "GPU_Hours": 0,
   "Runtime": 0.0005555555555555556,
   "App_Hours": 0.0044444444444444444,
   "JobId": "17203",
   "Queue": "q_x86_share",
   "User": "amd_app",
   "JobName": "chtMultiRegionSimpleFoam -parallel",
   "Cluster": "aip",
   "CPU_Cost": 0.0022222222222222222,
   "Mem_Cost": 0,
   "GPU_Cost": 0,
   "App_Cost": 0,
   "StartDate": "2020/11/18",
   "Project": "default"
  },
  {
   "CPU_Hours": 0.22,
   "Mem_GB_Hours": 0.000764312744140625,
   "GPU_Hours": 0,
   "Runtime": 0.006666666666666667,
   "App_Hours": 0.22,
   "JobId": "17350",
   "Queue": "q_x86_share_plus",
   "User": "amd_app",
   "App": "StarCCM",
   "JobDescription": "StarCCM",
   "JobName": "cubevnc",
   "Cluster": "aip",
   "CPU_Cost": 0.11,
   "Mem_Cost": 0,
   "GPU_Cost": 0,
   "App_Cost": 0,
   "StartDate": "2020/11/19",
   "Project": "default"
  },
  {
   "CPU_Hours": 0.1688888888888889,
   "Mem_GB_Hours": 0.40968299018012155,
   "GPU_Hours": 0.1688888888888889,
   "Runtime": 0.1688888888888889,
   "App_Hours": 0.1688888888888889,
   "JobId": "17777",
   "Queue": "local",
   "User": "amd_app",
   "App": "ParaView",
   "JobDescription": "ParaView",
   "JobName": "cubevnc",
   "Cluster": "aip",
   "CPU_Cost": 0.08444444444444445,
   "Mem_Cost": 0,
   "GPU_Cost": 0.08444444444444445,
   "App_Cost": 0,
   "StartDate": "2020/11/22",
   "Project": "default"
  },
  {
   "CPU_Hours": 5.352476327385556,
   "Mem_GB_Hours": 0.29209737956084747,
   "GPU_Hours": 0,
   "Runtime": 1.338119081846389,
   "App_Hours": 5.352476327385556,
   "JobId": "17990",
   "Queue": "q_x86_expr",
   "User": "amd_app",
   "App": "ICESimulator",
   "JobName": "/home/export/online3/amd_share/anaconda/bin/python3 /home/export/online3/amd_app/wxy/cas2foam/generate.py q_x86_expr 4 5 0.01 100 /home/export/online3/amd_app/fenglengjx9.10.801_1009 fenglengjx9.10.801_1009.cas",
   "Cluster": "aip",
   "CPU_Cost": 2.676238163692778,
   "Mem_Cost": 0,
   "GPU_Cost": 0,
   "App_Cost": 0,
   "StartDate": "2020/11/24",
   "Project": "default"
  },
  {
   "CPU_Hours": 0.09666666666666666,
   "Mem_GB_Hours": 0.0013645744323730468,
   "GPU_Hours": 0,
   "Runtime": 0.024166666666666666,
   "App_Hours": 0.09666666666666666,
   "JobId": "18179",
   "Queue": "q_x86_share",
   "User": "amd_app",
   "App": "ICESimulator",
   "JobName": "/home/export/online3/amd_share/anaconda/bin/python3 /home/export/online3/amd_app/wxy/cas2foam/generate.py q_x86_share 4 100 1 20 /home/export/online3/amd_app/IcesimProject/ss ss.cas",
   "Cluster": "aip",
   "CPU_Cost": 0.04833333333333333,
   "Mem_Cost": 0,
   "GPU_Cost": 0,
   "App_Cost": 0,
   "StartDate": "2020/11/25",
   "Project": "default"
  },
  {
   "CPU_Hours": 4.3712974862602785,
   "Mem_GB_Hours": 2.5914182918832767,
   "GPU_Hours": 4.3712974862602785,
   "Runtime": 4.3712974862602785,
   "App_Hours": 4.3712974862602785,
   "JobId": "16141",
   "Queue": "local",
   "User": "amd_app",
   "JobName": "cubevnc",
   "Cluster": "aip",
   "CPU_Cost": 2.1856487431301392,
   "Mem_Cost": 0,
   "GPU_Cost": 2.1856487431301392,
   "App_Cost": 0,
   "StartDate": "2020/11/11",
   "Project": "default"
  },
  {
   "CPU_Hours": 0.04,
   "Mem_GB_Hours": 0.0013368606567382812,
   "GPU_Hours": 0,
   "Runtime": 0.01,
   "App_Hours": 0.04,
   "JobId": "17239",
   "Queue": "q_x86_share",
   "User": "amd_app",
   "App": "ICESimulator",
   "JobName": "/home/export/online3/amd_share/anaconda/bin/python3 /home/export/online3/amd_app/wxy/cas2foam/generate.py q_x86_share 4 5 0.01 100 /home/export/online3/amd_app/wxy/openfoamtest/icepakcases/sanrecase/ sanre02.cas",
   "Cluster": "aip",
   "CPU_Cost": 0.02,
   "Mem_Cost": 0,
   "GPU_Cost": 0,
   "App_Cost": 0,
   "StartDate": "2020/11/18",
   "Project": "default"
  },
  {
   "CPU_Hours": 0.44333333333333336,
   "Mem_GB_Hours": 0.008660827212863499,
   "GPU_Hours": 0,
   "Runtime": 0.07388888888888889,
   "App_Hours": 0.44333333333333336,
   "JobId": "18379",
   "Queue": "q_x86_cn_sim",
   "User": "amd_app",
   "App": "Fluent",
   "JobDescription": "Fluent",
   "JobName": "cubevnc",
   "Cluster": "aip",
   "CPU_Cost": 0.22166666666666668,
   "Mem_Cost": 0,
   "GPU_Cost": 0,
   "App_Cost": 0,
   "StartDate": "2020/11/26",
   "Project": "default"
  },
  {
   "CPU_Hours": 14.400615299178055,
   "Mem_GB_Hours": 10.411180030958583,
   "GPU_Hours": 14.400615299178055,
   "Runtime": 14.400615299178055,
   "App_Hours": 14.400615299178055,
   "JobId": "18873",
   "Queue": "local",
   "User": "amd_app",
   "App": "ParaView",
   "JobDescription": "ParaView",
   "JobName": "cubevnc",
   "Cluster": "aip",
   "CPU_Cost": 7.2003076495890275,
   "Mem_Cost": 0,
   "GPU_Cost": 7.2003076495890275,
   "App_Cost": 0,
   "StartDate": "2020/11/30",
   "Project": "default"
  },
  {
   "CPU_Hours": 0.25,
   "Mem_GB_Hours": 0.005957365036010742,
   "GPU_Hours": 0,
   "Runtime": 0.0625,
   "App_Hours": 0.25,
   "JobId": "15634",
   "Queue": "q_x86_expr",
   "User": "amd_app",
   "App": "Fluent",
   "JobDescription": "Fluent",
   "JobName": "cubevnc",
   "Cluster": "aip",
   "CPU_Cost": 0.125,
   "Mem_Cost": 0,
   "GPU_Cost": 0,
   "App_Cost": 0,
   "StartDate": "2020/11/02",
   "Project": "default"
  },
  {
   "CPU_Hours": 0.02722222222222222,
   "Mem_GB_Hours": 0.00019216431511773002,
   "GPU_Hours": 0,
   "Runtime": 0.01361111111111111,
   "App_Hours": 0.02722222222222222,
   "JobId": "16202",
   "Queue": "q_x86_vio_share",
   "User": "amd_app",
   "JobDescription": "fluent_test",
   "JobName": "fluent_test",
   "Cluster": "aip",
   "CPU_Cost": 0.01361111111111111,
   "Mem_Cost": 0,
   "GPU_Cost": 0,
   "App_Cost": 0,
   "StartDate": "2020/11/11",
   "Project": "default"
  },
  {
   "CPU_Hours": 0,
   "Mem_GB_Hours": 0,
   "GPU_Hours": 0,
   "Runtime": 0,
   "App_Hours": 0,
   "JobId": "17542",
   "Queue": "local",
   "User": "amd_app",
   "JobName": "dcv",
   "Cluster": "aip",
   "CPU_Cost": 0,
   "Mem_Cost": 0,
   "GPU_Cost": 0,
   "App_Cost": 0,
   "StartDate": "2020/11/20",
   "Project": "default"
  },
  {
   "CPU_Hours": 0.3711111111111111,
   "Mem_GB_Hours": 0.008905490239461264,
   "GPU_Hours": 0,
   "Runtime": 0.04638888888888889,
   "App_Hours": 0.3711111111111111,
   "JobId": "18199",
   "Queue": "q_x86_share",
   "User": "amd_app",
   "App": "ICESimulator",
   "JobName": "/home/export/online3/amd_share/anaconda/bin/python3 /home/export/online3/amd_app/wxy/cas2foam/generate.py q_x86_share 8 100 1 20 /home/export/online3/amd_app/IcesimProject/pcb200 pcb200.cas",
   "Cluster": "aip",
   "CPU_Cost": 0.18555555555555556,
   "Mem_Cost": 0,
   "GPU_Cost": 0,
   "App_Cost": 0,
   "StartDate": "2020/11/25",
   "Project": "default"
  },
  {
   "CPU_Hours": 0.08027777777777778,
   "Mem_GB_Hours": 0.000579379399617513,
   "GPU_Hours": 0,
   "Runtime": 0.004722222222222222,
   "App_Hours": 0.08027777777777778,
   "JobId": "17355",
   "Queue": "q_x86_expr_plus",
   "User": "amd_app",
   "App": "StarCCM",
   "JobDescription": "StarCCM",
   "JobName": "cubevnc",
   "Cluster": "aip",
   "CPU_Cost": 0.04013888888888889,
   "Mem_Cost": 0,
   "GPU_Cost": 0,
   "App_Cost": 0,
   "StartDate": "2020/11/19",
   "Project": "default"
  },
  {
   "CPU_Hours": 0.0005555555555555556,
   "Mem_GB_Hours": 0.000005779266357421875,
   "GPU_Hours": 0,
   "Runtime": 0.0005555555555555556,
   "App_Hours": 0.0005555555555555556,
   "JobId": "16391",
   "Queue": "local",
   "User": "amd_app",
   "JobName": "cubevnc",
   "Cluster": "aip",
   "CPU_Cost": 0.0002777777777777778,
   "Mem_Cost": 0,
   "GPU_Cost": 0,
   "App_Cost": 0,
   "StartDate": "2020/11/12",
   "Project": "default"
  },
  {
   "CPU_Hours": 0.0019444444444444444,
   "Mem_GB_Hours": 0.000020835664537217883,
   "GPU_Hours": 0.0019444444444444444,
   "Runtime": 0.0019444444444444444,
   "App_Hours": 0.0019444444444444444,
   "JobId": "16157",
   "Queue": "local",
   "User": "amd_app",
   "JobName": "cubevnc",
   "Cluster": "aip",
   "CPU_Cost": 0.0009722222222222222,
   "Mem_Cost": 0,
   "GPU_Cost": 0.0009722222222222222,
   "App_Cost": 0,
   "StartDate": "2020/11/11",
   "Project": "default"
  },
  {
   "CPU_Hours": 0.08833333333333333,
   "Mem_GB_Hours": 0.05685811360677083,
   "GPU_Hours": 0.08833333333333333,
   "Runtime": 0.08833333333333333,
   "App_Hours": 0.08833333333333333,
   "JobId": "18166",
   "Queue": "local",
   "User": "amd_app",
   "App": "LSPrePost",
   "JobDescription": "LSPrePost",
   "JobName": "cubevnc",
   "Cluster": "aip",
   "CPU_Cost": 0.04416666666666667,
   "Mem_Cost": 0,
   "GPU_Cost": 0.04416666666666667,
   "App_Cost": 0,
   "StartDate": "2020/11/25",
   "Project": "default"
  },
  {
   "CPU_Hours": 231.78890889279305,
   "Mem_GB_Hours": 2.855258684497626,
   "GPU_Hours": 0,
   "Runtime": 3.565983213735278,
   "App_Hours": 231.78890889279305,
   "JobId": "15655",
   "Queue": "q_x86_share_plus",
   "User": "amd_app",
   "App": "StarCCM",
   "JobDescription": "StarCCM",
   "JobName": "cubevnc",
   "Cluster": "aip",
   "CPU_Cost": 115.89445444639652,
   "Mem_Cost": 0,
   "GPU_Cost": 0,
   "App_Cost": 0,
   "StartDate": "2020/11/02",
   "Project": "default"
  },
  {
   "CPU_Hours": 29.650675842874165,
   "Mem_GB_Hours": 0.3384289174508288,
   "GPU_Hours": 29.650675842874165,
   "Runtime": 29.650675842874165,
   "App_Hours": 29.650675842874165,
   "JobId": "17054",
   "Queue": "local",
   "User": "amd_app",
   "App": "PointWise",
   "JobDescription": "PointWise",
   "JobName": "cubevnc",
   "Cluster": "aip",
   "CPU_Cost": 14.825337921437082,
   "Mem_Cost": 0,
   "GPU_Cost": 14.825337921437082,
   "App_Cost": 0,
   "StartDate": "2020/11/17",
   "Project": "default"
  },
  {
   "CPU_Hours": 0.05555555555555555,
   "Mem_GB_Hours": 0.00013081232706705728,
   "GPU_Hours": 0,
   "Runtime": 0.013888888888888888,
   "App_Hours": 0.05555555555555555,
   "JobId": "18518",
   "Queue": "q_x86_expr",
   "User": "amd_app",
   "App": "CFX",
   "JobDescription": "Batch-CFX",
   "JobName": "/home/export/online3/amd_share/shangruan/bin/cfxyaml /home/export/base/nsccwuxi_amd/amd_app/WORK/Simforge_tutorial/StaticMixer.def no",
   "Cluster": "aip",
   "CPU_Cost": 0.027777777777777776,
   "Mem_Cost": 0,
   "GPU_Cost": 0,
   "App_Cost": 0,
   "StartDate": "2020/11/27",
   "Project": "default"
  },
  {
   "CPU_Hours": 19.124079169931946,
   "Mem_GB_Hours": 0.5360812623824124,
   "GPU_Hours": 0,
   "Runtime": 0.39028732999861115,
   "App_Hours": 19.124079169931946,
   "JobId": "18320",
   "Queue": "q_x86_cn_sim_plus",
   "User": "amd_app",
   "App": "StarCCM",
   "JobDescription": "StarCCM",
   "JobName": "cubevnc",
   "Cluster": "aip",
   "CPU_Cost": 9.562039584965973,
   "Mem_Cost": 0,
   "GPU_Cost": 0,
   "App_Cost": 0,
   "StartDate": "2020/11/26",
   "Project": "default"
  },
  {
   "CPU_Hours": 0.38,
   "Mem_GB_Hours": 0.007808370590209961,
   "GPU_Hours": 0,
   "Runtime": 0.0475,
   "App_Hours": 0.38,
   "JobId": "18356",
   "Queue": "q_x86_vio_share",
   "User": "amd_app",
   "App": "ICESimulator",
   "JobDescription": "pcb200",
   "JobName": "/home/export/online3/amd_share/anaconda/bin/python3 /home/export/online3/amd_app/wxy/cas2foam/generate.py q_x86_vio_share 8 100 1 20 /home/export/online3/amd_app/IcesimProject/pcb200 pcb200.cas",
   "Cluster": "aip",
   "CPU_Cost": 0.19,
   "Mem_Cost": 0,
   "GPU_Cost": 0,
   "App_Cost": 0,
   "StartDate": "2020/11/26",
   "Project": "default"
  },
  {
   "CPU_Hours": 0.0002777777777777778,
   "Mem_GB_Hours": 0.0000028504265679253473,
   "GPU_Hours": 0,
   "Runtime": 0.0002777777777777778,
   "App_Hours": 0.0002777777777777778,
   "JobId": "16153",
   "Queue": "",
   "User": "amd_app",
   "App": "Hypermesh",
   "JobDescription": "Hypermesh",
   "Cluster": "aip",
   "CPU_Cost": 0.00008333333333333333,
   "Mem_Cost": 0,
   "GPU_Cost": 0,
   "App_Cost": 0,
   "StartDate": "2020/11/11"
  },
  {
   "CPU_Hours": 0.005277777777777778,
   "Mem_GB_Hours": 0.001231925752427843,
   "GPU_Hours": 0.005277777777777778,
   "Runtime": 0.005277777777777778,
   "App_Hours": 0.005277777777777778,
   "JobId": "18346",
   "Queue": "local",
   "User": "amd_app",
   "App": "ICEM-CFD",
   "JobDescription": "ICEM-CFD",
   "JobName": "cubevnc",
   "Cluster": "aip",
   "CPU_Cost": 0.002638888888888889,
   "Mem_Cost": 0,
   "GPU_Cost": 0.002638888888888889,
   "App_Cost": 0,
   "StartDate": "2020/11/26",
   "Project": "default"
  },
  {
   "CPU_Hours": 17.65185265455528,
   "Mem_GB_Hours": 0.11492588320119831,
   "GPU_Hours": 0,
   "Runtime": 17.65185265455528,
   "App_Hours": 17.65185265455528,
   "JobId": "17684",
   "Queue": "local",
   "User": "amd_app",
   "JobName": "dcv",
   "Cluster": "aip",
   "CPU_Cost": 8.82592632727764,
   "Mem_Cost": 0,
   "GPU_Cost": 0,
   "App_Cost": 0,
   "StartDate": "2020/11/21",
   "Project": "default"
  },
  {
   "CPU_Hours": 0.0011111111111111111,
   "Mem_GB_Hours": 0.000008527967664930555,
   "GPU_Hours": 0.0011111111111111111,
   "Runtime": 0.0011111111111111111,
   "App_Hours": 0.0011111111111111111,
   "JobId": "16015",
   "Queue": "local",
   "User": "amd_app",
   "App": "FluentMesh2020",
   "JobDescription": "FluentMesh2020",
   "JobName": "cubevnc",
   "Cluster": "aip",
   "CPU_Cost": 0.0005555555555555556,
   "Mem_Cost": 0,
   "GPU_Cost": 0.0005555555555555556,
   "App_Cost": 0,
   "StartDate": "2020/11/06",
   "Project": "default"
  },
  {
   "CPU_Hours": 0.03333333333333333,
   "Mem_GB_Hours": 0.000039217207166883685,
   "GPU_Hours": 0,
   "Runtime": 0.002777777777777778,
   "App_Hours": 0.03333333333333333,
   "JobId": "16542",
   "Queue": "q_x86_cn_sim",
   "User": "amd_app",
   "App": "LS-DYNA",
   "JobDescription": "Batch-LS-DYNA",
   "JobName": "/home/export/online3/amd_share/shangruan/bin/dynayaml /home/export/base/nsccwuxi_amd/amd_app/WORK/dzj/dzj_online1/ls-dynatest/car01/000_yaris_dynamic_roof_crush_01.k single",
   "Cluster": "aip",
   "CPU_Cost": 0.016666666666666666,
   "Mem_Cost": 0,
   "GPU_Cost": 0,
   "App_Cost": 0,
   "StartDate": "2020/11/13",
   "Project": "default"
  },
  {
   "CPU_Hours": 0.5433333333333333,
   "Mem_GB_Hours": 0.030095255109998914,
   "GPU_Hours": 0,
   "Runtime": 0.04527777777777778,
   "App_Hours": 0.5433333333333333,
   "JobId": "16513",
   "Queue": "q_x86_cn_sim_plus",
   "User": "amd_app",
   "JobName": "cubevnc",
   "Cluster": "aip",
   "CPU_Cost": 0.27166666666666667,
   "Mem_Cost": 0,
   "GPU_Cost": 0,
   "App_Cost": 0,
   "StartDate": "2020/11/13",
   "Project": "default"
  },
  {
   "CPU_Hours": 4.0012854714327775,
   "Mem_GB_Hours": 2.2640750928554967,
   "GPU_Hours": 4.0012854714327775,
   "Runtime": 4.0012854714327775,
   "App_Hours": 4.0012854714327775,
   "JobId": "18526",
   "Queue": "local",
   "User": "amd_app",
   "App": "ParaView",
   "JobDescription": "ParaView",
   "JobName": "cubevnc",
   "Cluster": "aip",
   "CPU_Cost": 2.0006427357163887,
   "Mem_Cost": 0,
   "GPU_Cost": 2.0006427357163887,
   "App_Cost": 0,
   "StartDate": "2020/11/27",
   "Project": "default"
  },
  {
   "CPU_Hours": 0.22,
   "Mem_GB_Hours": 0.00017267227172851563,
   "GPU_Hours": 0,
   "Runtime": 0.018333333333333333,
   "App_Hours": 0.22,
   "JobId": "18372",
   "Queue": "q_x86_expr",
   "User": "amd_app",
   "App": "SWOF",
   "JobDescription": "SWOF_calculate",
   "JobName": "swof_/home/export/base/nsccwuxi_amd/amd_app/WORK/Zhouhl/Project/OF/OpenFOAM-GUI/OF_test_Calculate71260",
   "Cluster": "aip",
   "CPU_Cost": 0.11,
   "Mem_Cost": 0,
   "GPU_Cost": 0,
   "App_Cost": 0,
   "StartDate": "2020/11/26",
   "Project": "default"
  },
  {
   "CPU_Hours": 0.06695245229166667,
   "Mem_GB_Hours": 0.0221343049622035,
   "GPU_Hours": 0.06695245229166667,
   "Runtime": 0.06695245229166667,
   "App_Hours": 0.06695245229166667,
   "JobId": "18532",
   "Queue": "local",
   "User": "amd_app",
   "App": "FluentMeshing",
   "JobDescription": "FluentMeshing",
   "JobName": "cubevnc",
   "Cluster": "aip",
   "CPU_Cost": 0.033476226145833336,
   "Mem_Cost": 0,
   "GPU_Cost": 0.033476226145833336,
   "App_Cost": 0,
   "StartDate": "2020/11/27",
   "Project": "default"
  },
  {
   "CPU_Hours": 4.001557529014445,
   "Mem_GB_Hours": 2.65621219052293,
   "GPU_Hours": 4.001557529014445,
   "Runtime": 4.001557529014445,
   "App_Hours": 4.001557529014445,
   "JobId": "18673",
   "Queue": "local",
   "User": "amd_app",
   "App": "ParaView",
   "JobDescription": "ParaView",
   "JobName": "cubevnc",
   "Cluster": "aip",
   "CPU_Cost": 2.0007787645072224,
   "Mem_Cost": 0,
   "GPU_Cost": 2.0007787645072224,
   "App_Cost": 0,
   "StartDate": "2020/11/28",
   "Project": "default"
  },
  {
   "CPU_Hours": 4.001830267729723,
   "Mem_GB_Hours": 6.9450122158059076,
   "GPU_Hours": 4.001830267729723,
   "Runtime": 4.001830267729723,
   "App_Hours": 4.001830267729723,
   "JobId": "18043",
   "Queue": "local",
   "User": "amd_app",
   "App": "ParaView",
   "JobDescription": "ParaView",
   "JobName": "cubevnc",
   "Cluster": "aip",
   "CPU_Cost": 2.0009151338648614,
   "Mem_Cost": 0,
   "GPU_Cost": 2.0009151338648614,
   "App_Cost": 0,
   "StartDate": "2020/11/24",
   "Project": "default"
  },
  {
   "CPU_Hours": 0.07166666666666667,
   "Mem_GB_Hours": 0.0003373591105143229,
   "GPU_Hours": 0,
   "Runtime": 0.035833333333333335,
   "App_Hours": 0.07166666666666667,
   "JobId": "18339",
   "Queue": "q_x86_expr",
   "User": "amd_app",
   "App": "Fluent",
   "JobDescription": "ex101.uns_in",
   "JobName": "/home/export/online3/amd_app/Zhouhl/Project/SimGO/ICEPAK/ex1/ex101.uns_in",
   "Cluster": "aip",
   "CPU_Cost": 0.035833333333333335,
   "Mem_Cost": 0,
   "GPU_Cost": 0,
   "App_Cost": 0,
   "StartDate": "2020/11/26",
   "Project": "default"
  },
  {
   "CPU_Hours": 0.15888888888888889,
   "Mem_GB_Hours": 0.002106697294447157,
   "GPU_Hours": 0,
   "Runtime": 0.03972222222222222,
   "App_Hours": 0.15888888888888889,
   "JobId": "18539",
   "Queue": "q_x86_share",
   "User": "amd_app",
   "App": "ICESimulator",
   "JobDescription": "ss",
   "JobName": "/home/export/online3/amd_share/anaconda/bin/python3 /home/export/online3/amd_app/wxy/cas2foam/generate.py q_x86_share 4 100 1 20 /home/export/online3/amd_app/IcesimProject/ss ss.cas",
   "Cluster": "aip",
   "CPU_Cost": 0.07944444444444444,
   "Mem_Cost": 0,
   "GPU_Cost": 0,
   "App_Cost": 0,
   "StartDate": "2020/11/27",
   "Project": "default"
  },
  {
   "CPU_Hours": 0.4022222222222222,
   "Mem_GB_Hours": 0.008264233271280924,
   "GPU_Hours": 0,
   "Runtime": 0.050277777777777775,
   "App_Hours": 0.4022222222222222,
   "JobId": "18530",
   "Queue": "q_x86_share",
   "User": "amd_app",
   "App": "ICESimulator",
   "JobDescription": "pcb200",
   "JobName": "/home/export/online3/amd_share/anaconda/bin/python3 /home/export/online3/amd_app/wxy/cas2foam/generate.py q_x86_share 8 100 1 20 /home/export/online3/amd_app/IcesimProject/pcb200 pcb200.cas",
   "Cluster": "aip",
   "CPU_Cost": 0.2011111111111111,
   "Mem_Cost": 0,
   "GPU_Cost": 0,
   "App_Cost": 0,
   "StartDate": "2020/11/27",
   "Project": "default"
  },
  {
   "CPU_Hours": 0.0002777777777777778,
   "Mem_GB_Hours": 0.0000017261505126953126,
   "GPU_Hours": 0,
   "Runtime": 0.0002777777777777778,
   "App_Hours": 0.0002777777777777778,
   "JobId": "17544",
   "Queue": "local",
   "User": "amd_app",
   "JobName": "dcv",
   "Cluster": "aip",
   "CPU_Cost": 0.0001388888888888889,
   "Mem_Cost": 0,
   "GPU_Cost": 0,
   "App_Cost": 0,
   "StartDate": "2020/11/20",
   "Project": "default"
  },
  {
   "CPU_Hours": 0.023333333333333334,
   "Mem_GB_Hours": 0.008432413736979167,
   "GPU_Hours": 0.023333333333333334,
   "Runtime": 0.023333333333333334,
   "App_Hours": 0.023333333333333334,
   "JobId": "18404",
   "Queue": "local",
   "User": "amd_app",
   "App": "ICEM-CFD",
   "JobDescription": "ICEM-CFD",
   "JobName": "cubevnc",
   "Cluster": "aip",
   "CPU_Cost": 0.011666666666666667,
   "Mem_Cost": 0,
   "GPU_Cost": 0.011666666666666667,
   "App_Cost": 0,
   "StartDate": "2020/11/26",
   "Project": "default"
  },
  {
   "CPU_Hours": 1.1324999999999998,
   "Mem_GB_Hours": 0.011714792251586913,
   "GPU_Hours": 0,
   "Runtime": 0.12583333333333332,
   "App_Hours": 1.1324999999999998,
   "JobId": "16380",
   "Queue": "q_x86_cn_sim",
   "User": "amd_app",
   "App": "Fluent",
   "JobDescription": "sim",
   "JobName": "cubevnc",
   "Cluster": "aip",
   "CPU_Cost": 0.5662499999999999,
   "Mem_Cost": 0,
   "GPU_Cost": 0,
   "App_Cost": 0,
   "StartDate": "2020/11/12",
   "Project": "default"
  },
  {
   "CPU_Hours": 0.011111111111111112,
   "Mem_GB_Hours": 0.0000575913323296441,
   "GPU_Hours": 0,
   "Runtime": 0.002777777777777778,
   "App_Hours": 0.011111111111111112,
   "JobId": "17304",
   "Queue": "q_x86_share",
   "User": "amd_app",
   "App": "CFX",
   "JobDescription": "Batch-CFX",
   "JobName": "/home/export/online3/amd_share/shangruan/bin/cfxyaml /home/export/base/nsccwuxi_amd/amd_app/WORK/Zhouhl/Project/SimGO/CFX/StaticMixer.def /home/export/base/nsccwuxi_amd/amd_app/WORK/Zhouhl/Project/SimGO/CFX/StaticMixer_2_001.res yes",
   "Cluster": "aip",
   "CPU_Cost": 0.005555555555555556,
   "Mem_Cost": 0,
   "GPU_Cost": 0,
   "App_Cost": 0,
   "StartDate": "2020/11/19",
   "Project": "default"
  },
  {
   "CPU_Hours": 4.001549100969999,
   "Mem_GB_Hours": 3.0463878196896954,
   "GPU_Hours": 4.001549100969999,
   "Runtime": 4.001549100969999,
   "App_Hours": 4.001549100969999,
   "JobId": "16001",
   "Queue": "local",
   "User": "amd_app",
   "App": "ParaView",
   "JobDescription": "ParaView",
   "JobName": "cubevnc",
   "Cluster": "aip",
   "CPU_Cost": 2.0007745504849996,
   "Mem_Cost": 0,
   "GPU_Cost": 2.0007745504849996,
   "App_Cost": 0,
   "StartDate": "2020/11/06",
   "Project": "default"
  },
  {
   "CPU_Hours": 0.14,
   "Mem_GB_Hours": 0.00011019388834635417,
   "GPU_Hours": 0,
   "Runtime": 0.011666666666666667,
   "App_Hours": 0.14,
   "JobId": "17576",
   "Queue": "q_x86_expr",
   "User": "amd_app",
   "JobName": "fluent-job /home/export/base/nsccwuxi_amd/amd_app/online3/Zhouhl/Project/SimGO/Fluent/mixing_tank/mixing_tank.jou 3ddp",
   "Cluster": "aip",
   "CPU_Cost": 0.07,
   "Mem_Cost": 0,
   "GPU_Cost": 0,
   "App_Cost": 0,
   "StartDate": "2020/11/20",
   "Project": "default"
  },
  {
   "CPU_Hours": 1.3733853548300001,
   "Mem_GB_Hours": 0.0928203063223897,
   "GPU_Hours": 0,
   "Runtime": 0.22889755913833335,
   "App_Hours": 1.3733853548300001,
   "JobId": "18315",
   "Queue": "q_x86_cn_sim",
   "User": "amd_app",
   "App": "Fluent",
   "JobDescription": "Fluent_test",
   "JobName": "cubevnc",
   "Cluster": "aip",
   "CPU_Cost": 0.6866926774150001,
   "Mem_Cost": 0,
   "GPU_Cost": 0,
   "App_Cost": 0,
   "StartDate": "2020/11/26",
   "Project": "default"
  },
  {
   "CPU_Hours": 0.14723299800722223,
   "Mem_GB_Hours": 0.09296902272586909,
   "GPU_Hours": 0.14723299800722223,
   "Runtime": 0.14723299800722223,
   "App_Hours": 0.14723299800722223,
   "JobId": "16051",
   "Queue": "local",
   "User": "amd_app",
   "App": "PointWise",
   "JobDescription": "PointWise",
   "JobName": "cubevnc",
   "Cluster": "aip",
   "CPU_Cost": 0.07361649900361111,
   "Mem_Cost": 0,
   "GPU_Cost": 0.07361649900361111,
   "App_Cost": 0,
   "StartDate": "2020/11/09",
   "Project": "default"
  },
  {
   "CPU_Hours": 4.247452762672222,
   "Mem_GB_Hours": 0.033557919816564696,
   "GPU_Hours": 0,
   "Runtime": 0.4247452762672222,
   "App_Hours": 4.247452762672222,
   "JobId": "16146",
   "Queue": "q_x86_cn_sim",
   "User": "amd_app",
   "App": "AnsysAPDL",
   "JobDescription": "AnsysAPDL",
   "JobName": "cubevnc",
   "Cluster": "aip",
   "CPU_Cost": 2.123726381336111,
   "Mem_Cost": 0,
   "GPU_Cost": 0,
   "App_Cost": 0,
   "StartDate": "2020/11/11",
   "Project": "default"
  },
  {
   "CPU_Hours": 5.244710507524444,
   "Mem_GB_Hours": 0.695240462265515,
   "GPU_Hours": 0,
   "Runtime": 0.6555888134405555,
   "App_Hours": 5.244710507524444,
   "JobId": "18037",
   "Queue": "q_x86_share",
   "User": "amd_app",
   "App": "ICESimulator",
   "JobName": "/home/export/online3/amd_share/anaconda/bin/python3 /home/export/online3/amd_app/wxy/cas2foam/generate.py q_x86_share 8 200 1 2 /home/export/online3/amd_app/fenglengjx9.10.801_1009 fenglengjx9.10.801_1009.cas",
   "Cluster": "aip",
   "CPU_Cost": 2.622355253762222,
   "Mem_Cost": 0,
   "GPU_Cost": 0,
   "App_Cost": 0,
   "StartDate": "2020/11/24",
   "Project": "default"
  },
  {
   "CPU_Hours": 0.0022222222222222222,
   "Mem_GB_Hours": 0.000006247626410590278,
   "GPU_Hours": 0,
   "Runtime": 0.0002777777777777778,
   "App_Hours": 0.0022222222222222222,
   "JobId": "17205",
   "Queue": "q_x86_share",
   "User": "amd_app",
   "JobName": "chtMultiRegionSimpleFoam -parallel",
   "Cluster": "aip",
   "CPU_Cost": 0.0011111111111111111,
   "Mem_Cost": 0,
   "GPU_Cost": 0,
   "App_Cost": 0,
   "StartDate": "2020/11/18",
   "Project": "default"
  },
  {
   "CPU_Hours": 0.12277777777777778,
   "Mem_GB_Hours": 0.0021402676900227863,
   "GPU_Hours": 0,
   "Runtime": 0.007222222222222222,
   "App_Hours": 0.12277777777777778,
   "JobId": "17352",
   "Queue": "q_x86_cn_sim_plus",
   "User": "amd_app",
   "App": "StarCCM",
   "JobDescription": "StarCCM",
   "JobName": "cubevnc",
   "Cluster": "aip",
   "CPU_Cost": 0.06138888888888889,
   "Mem_Cost": 0,
   "GPU_Cost": 0,
   "App_Cost": 0,
   "StartDate": "2020/11/19",
   "Project": "default"
  },
  {
   "CPU_Hours": 0,
   "Mem_GB_Hours": 0,
   "GPU_Hours": 0,
   "Runtime": 0,
   "App_Hours": 0,
   "JobId": "16160",
   "Queue": "",
   "User": "amd_app",
   "App": "Hypermesh",
   "JobDescription": "Hypermesh",
   "Cluster": "aip",
   "CPU_Cost": 0,
   "Mem_Cost": 0,
   "GPU_Cost": 0,
   "App_Cost": 0,
   "StartDate": "2020/11/11"
  },
  {
   "CPU_Hours": 0,
   "Mem_GB_Hours": 0,
   "GPU_Hours": 0,
   "Runtime": 0,
   "App_Hours": 0,
   "JobId": "17077",
   "Queue": "q_x86_expr",
   "User": "amd_app",
   "JobName": "test",
   "Cluster": "aip",
   "CPU_Cost": 0,
   "Mem_Cost": 0,
   "GPU_Cost": 0,
   "App_Cost": 0,
   "StartDate": "2020/11/17",
   "Project": "default"
  },
  {
   "CPU_Hours": 0.0002777777777777778,
   "Mem_GB_Hours": 0.0000029298994276258682,
   "GPU_Hours": 0,
   "Runtime": 0.0002777777777777778,
   "App_Hours": 0.0002777777777777778,
   "JobId": "16183",
   "Queue": "local",
   "User": "amd_app",
   "JobDescription": "test1",
   "JobName": "test",
   "Cluster": "aip",
   "CPU_Cost": 0.0001388888888888889,
   "Mem_Cost": 0,
   "GPU_Cost": 0,
   "App_Cost": 0,
   "StartDate": "2020/11/11",
   "Project": "default"
  },
  {
   "CPU_Hours": 0,
   "Mem_GB_Hours": 0,
   "GPU_Hours": 0,
   "Runtime": 0,
   "App_Hours": 0,
   "JobId": "17075",
   "Queue": "q_x86_share",
   "User": "amd_app",
   "JobName": "pwd",
   "Cluster": "aip",
   "CPU_Cost": 0,
   "Mem_Cost": 0,
   "GPU_Cost": 0,
   "App_Cost": 0,
   "StartDate": "2020/11/17",
   "Project": "default"
  },
  {
   "CPU_Hours": 0.043333333333333335,
   "Mem_GB_Hours": 0.000034011205037434896,
   "GPU_Hours": 0,
   "Runtime": 0.003611111111111111,
   "App_Hours": 0.043333333333333335,
   "JobId": "18364",
   "Queue": "q_x86_expr",
   "User": "amd_app",
   "App": "SWOF",
   "JobDescription": "SWOF_calculate",
   "JobName": "swof_/home/export/base/nsccwuxi_amd/amd_app/WORK/Zhouhl/Project/OF/OpenFOAM-GUI/OF_test_Calculate96345",
   "Cluster": "aip",
   "CPU_Cost": 0.021666666666666667,
   "Mem_Cost": 0,
   "GPU_Cost": 0,
   "App_Cost": 0,
   "StartDate": "2020/11/26",
   "Project": "default"
  },
  {
   "CPU_Hours": 0.008333333333333333,
   "Mem_GB_Hours": 0.000054658253987630214,
   "GPU_Hours": 0,
   "Runtime": 0.0016666666666666668,
   "App_Hours": 0.008333333333333333,
   "JobId": "16378",
   "Queue": "q_x86_cn_sim",
   "User": "amd_app",
   "App": "Fluent",
   "JobDescription": "Fluent",
   "JobName": "cubevnc",
   "Cluster": "aip",
   "CPU_Cost": 0.004166666666666667,
   "Mem_Cost": 0,
   "GPU_Cost": 0,
   "App_Cost": 0,
   "StartDate": "2020/11/12",
   "Project": "default"
  },
  {
   "CPU_Hours": 0.010277777777777778,
   "Mem_GB_Hours": 0.0000971931881374783,
   "GPU_Hours": 0,
   "Runtime": 0.010277777777777778,
   "App_Hours": 0.010277777777777778,
   "JobId": "17477",
   "Queue": "q_x86_cn_sim",
   "User": "amd_app",
   "App": "StarCCM",
   "JobDescription": "Batch-StarCCM",
   "JobName": "/home/export/online3/amd_share/shangruan/bin/starccmyaml /home/export/base/nsccwuxi_amd/amd_app/WORK/Zhouhl/Project/SimGO/STARCCM/adjointWing_start_200.sim",
   "Cluster": "aip",
   "CPU_Cost": 0.005138888888888889,
   "Mem_Cost": 0,
   "GPU_Cost": 0,
   "App_Cost": 0,
   "StartDate": "2020/11/20",
   "Project": "default"
  },
  {
   "CPU_Hours": 0.5741666666666667,
   "Mem_GB_Hours": 0.03388081232706706,
   "GPU_Hours": 0,
   "Runtime": 0.04416666666666667,
   "App_Hours": 0.5741666666666667,
   "JobId": "16399",
   "Queue": "q_x86_cn_sim_plus",
   "User": "amd_app",
   "App": "StarCCM",
   "JobDescription": "StarCCM",
   "JobName": "cubevnc",
   "Cluster": "aip",
   "CPU_Cost": 0.28708333333333336,
   "Mem_Cost": 0,
   "GPU_Cost": 0,
   "App_Cost": 0,
   "StartDate": "2020/11/12",
   "Project": "default"
  },
  {
   "CPU_Hours": 0.0425,
   "Mem_GB_Hours": 0.0003043079376220703,
   "GPU_Hours": 0,
   "Runtime": 0.004722222222222222,
   "App_Hours": 0.0425,
   "JobId": "17344",
   "Queue": "q_x86_cn_sim",
   "User": "amd_app",
   "App": "Fluent",
   "JobDescription": "Fluent",
   "JobName": "cubevnc",
   "Cluster": "aip",
   "CPU_Cost": 0.02125,
   "Mem_Cost": 0,
   "GPU_Cost": 0,
   "App_Cost": 0,
   "StartDate": "2020/11/19",
   "Project": "default"
  },
  {
   "CPU_Hours": 0.05138888888888889,
   "Mem_GB_Hours": 0.19709339671664766,
   "GPU_Hours": 0.05138888888888889,
   "Runtime": 0.05138888888888889,
   "App_Hours": 0.05138888888888889,
   "JobId": "17397",
   "Queue": "local",
   "User": "amd_app",
   "App": "ParaView",
   "JobDescription": "ParaView",
   "JobName": "cubevnc",
   "Cluster": "aip",
   "CPU_Cost": 0.025694444444444443,
   "Mem_Cost": 0,
   "GPU_Cost": 0.025694444444444443,
   "App_Cost": 0,
   "StartDate": "2020/11/19",
   "Project": "default"
  },
  {
   "CPU_Hours": 0.011111111111111112,
   "Mem_GB_Hours": 0.000026257832845052085,
   "GPU_Hours": 0,
   "Runtime": 0.002777777777777778,
   "App_Hours": 0.011111111111111112,
   "JobId": "17313",
   "Queue": "q_x86_expr",
   "User": "amd_app",
   "App": "CFX",
   "JobDescription": "Batch-CFX",
   "JobName": "/home/export/online3/amd_share/shangruan/bin/cfxyaml /home/export/base/nsccwuxi_amd/amd_app/WORK/Zhouhl/Project/SimGO/CFX/StaticMixer.def /home/export/base/nsccwuxi_amd/amd_app/WORK/Zhouhl/Project/SimGO/CFX/StaticMixer_2_001.res yes",
   "Cluster": "aip",
   "CPU_Cost": 0.005555555555555556,
   "Mem_Cost": 0,
   "GPU_Cost": 0,
   "App_Cost": 0,
   "StartDate": "2020/11/19",
   "Project": "default"
  },
  {
   "CPU_Hours": 0,
   "Mem_GB_Hours": 0,
   "GPU_Hours": 0,
   "Runtime": 0,
   "App_Hours": 0,
   "JobId": "17341",
   "Queue": "q_x86_cn_sim_plus",
   "User": "amd_app",
   "App": "StarCCM",
   "JobDescription": "StarCCM",
   "JobName": "cubevnc",
   "Cluster": "aip",
   "CPU_Cost": 0,
   "Mem_Cost": 0,
   "GPU_Cost": 0,
   "App_Cost": 0,
   "StartDate": "2020/11/19",
   "Project": "default"
  },
  {
   "CPU_Hours": 8.080327038668889,
   "Mem_GB_Hours": 0.1762273651812867,
   "GPU_Hours": 0,
   "Runtime": 1.0100408798336111,
   "App_Hours": 8.080327038668889,
   "JobId": "18047",
   "Queue": "q_x86_share",
   "User": "amd_app",
   "App": "ICESimulator",
   "JobName": "/home/export/online3/amd_share/anaconda/bin/python3 /home/export/online3/amd_app/wxy/cas2foam/generate.py q_x86_share 8 0.5 0.005 20 /home/export/online3/amd_app/IcesimProject/fenglengjx9.10.801_1009 fenglengjx9.10.801_1009.cas",
   "Cluster": "aip",
   "CPU_Cost": 4.0401635193344445,
   "Mem_Cost": 0,
   "GPU_Cost": 0,
   "App_Cost": 0,
   "StartDate": "2020/11/24",
   "Project": "default"
  },
  {
   "CPU_Hours": 0.007222222222222222,
   "Mem_GB_Hours": 0.0023175557454427082,
   "GPU_Hours": 0.007222222222222222,
   "Runtime": 0.007222222222222222,
   "App_Hours": 0.007222222222222222,
   "JobId": "17892",
   "Queue": "local",
   "User": "amd_app",
   "App": "FluentMeshing",
   "JobDescription": "FluentMeshing",
   "JobName": "cubevnc",
   "Cluster": "aip",
   "CPU_Cost": 0.003611111111111111,
   "Mem_Cost": 0,
   "GPU_Cost": 0.003611111111111111,
   "App_Cost": 0,
   "StartDate": "2020/11/23",
   "Project": "default"
  },
  {
   "CPU_Hours": 0.0011111111111111111,
   "Mem_GB_Hours": 0.000008549160427517361,
   "GPU_Hours": 0.0011111111111111111,
   "Runtime": 0.0011111111111111111,
   "App_Hours": 0.0011111111111111111,
   "JobId": "16019",
   "Queue": "local",
   "User": "amd_app",
   "App": "FluentMesh2020",
   "JobDescription": "FluentMesh2020",
   "JobName": "cubevnc",
   "Cluster": "aip",
   "CPU_Cost": 0.0005555555555555556,
   "Mem_Cost": 0,
   "GPU_Cost": 0.0005555555555555556,
   "App_Cost": 0,
   "StartDate": "2020/11/06",
   "Project": "default"
  },
  {
   "CPU_Hours": 0.03388888888888889,
   "Mem_GB_Hours": 0.00023922496371799049,
   "GPU_Hours": 0,
   "Runtime": 0.016944444444444446,
   "App_Hours": 0.03388888888888889,
   "JobId": "16199",
   "Queue": "q_x86_vio_share",
   "User": "amd_app",
   "JobDescription": "fluent_test",
   "JobName": "fluent_test",
   "Cluster": "aip",
   "CPU_Cost": 0.016944444444444446,
   "Mem_Cost": 0,
   "GPU_Cost": 0,
   "App_Cost": 0,
   "StartDate": "2020/11/11",
   "Project": "default"
  },
  {
   "CPU_Hours": 0.502602429705,
   "Mem_GB_Hours": 0.0375309784141764,
   "GPU_Hours": 0,
   "Runtime": 0.05584471441166667,
   "App_Hours": 0.502602429705,
   "JobId": "17327",
   "Queue": "q_x86_share_plus",
   "User": "amd_app",
   "App": "StarCCM",
   "JobDescription": "StarCCM",
   "JobName": "cubevnc",
   "Cluster": "aip",
   "CPU_Cost": 0.2513012148525,
   "Mem_Cost": 0,
   "GPU_Cost": 0,
   "App_Cost": 0,
   "StartDate": "2020/11/19",
   "Project": "default"
  },
  {
   "CPU_Hours": 47.93878039314,
   "Mem_GB_Hours": 0.01843743059780246,
   "GPU_Hours": 0,
   "Runtime": 3.994898366095,
   "App_Hours": 47.93878039314,
   "JobId": "17540",
   "Queue": "q_x86_share",
   "User": "amd_app",
   "JobName": "fluent-job /home/export/base/nsccwuxi_amd/amd_app/online3/Zhouhl/Project/SimGO/Fluent/mixing_tank/mixing_tank.jou 3ddp",
   "Cluster": "aip",
   "CPU_Cost": 23.96939019657,
   "Mem_Cost": 0,
   "GPU_Cost": 0,
   "App_Cost": 0,
   "StartDate": "2020/11/20",
   "Project": "default"
  },
  {
   "CPU_Hours": 0.021111111111111112,
   "Mem_GB_Hours": 0.00010952419704861112,
   "GPU_Hours": 0,
   "Runtime": 0.005277777777777778,
   "App_Hours": 0.021111111111111112,
   "JobId": "16317",
   "Queue": "q_x86_share",
   "User": "amd_app",
   "App": "CFX",
   "JobDescription": "Batch-CFX",
   "JobName": "/home/export/online3/amd_share/shangruan/bin/cfxyaml /home/export/base/nsccwuxi_amd/amd_app/WORK/Zhouhl/Project/SimGO/CFX/StaticMixer.def /home/export/base/nsccwuxi_amd/amd_app/WORK/Zhouhl/Project/SimGO/CFX/StaticMixer_2_001.res yes",
   "Cluster": "aip",
   "CPU_Cost": 0.010555555555555556,
   "Mem_Cost": 0,
   "GPU_Cost": 0,
   "App_Cost": 0,
   "StartDate": "2020/11/12",
   "Project": "default"
  },
  {
   "CPU_Hours": 3.4560935097425,
   "Mem_GB_Hours": 0.0736186407562204,
   "GPU_Hours": 0,
   "Runtime": 0.10473010635583332,
   "App_Hours": 3.4560935097425,
   "JobId": "16385",
   "Queue": "q_x86_vio_share_plus",
   "User": "amd_app",
   "App": "StarCCM",
   "JobDescription": "32cpu",
   "JobName": "cubevnc",
   "Cluster": "aip",
   "CPU_Cost": 1.72804675487125,
   "Mem_Cost": 0,
   "GPU_Cost": 0,
   "App_Cost": 0,
   "StartDate": "2020/11/12",
   "Project": "default"
  },
  {
   "CPU_Hours": 0.315,
   "Mem_GB_Hours": 0.0057175540924072265,
   "GPU_Hours": 0,
   "Runtime": 0.0525,
   "App_Hours": 0.315,
   "JobId": "18029",
   "Queue": "q_x86_vio_share",
   "User": "amd_app",
   "App": "Fluent",
   "JobDescription": "flu1124",
   "JobName": "cubevnc",
   "Cluster": "aip",
   "CPU_Cost": 0.1575,
   "Mem_Cost": 0,
   "GPU_Cost": 0,
   "App_Cost": 0,
   "StartDate": "2020/11/24",
   "Project": "default"
  },
  {
   "CPU_Hours": 0.025555555555555557,
   "Mem_GB_Hours": 0.00013267940945095488,
   "GPU_Hours": 0,
   "Runtime": 0.006388888888888889,
   "App_Hours": 0.025555555555555557,
   "JobId": "16314",
   "Queue": "q_x86_share",
   "User": "amd_app",
   "App": "CFX",
   "JobDescription": "Batch-CFX",
   "JobName": "/home/export/online3/amd_share/shangruan/bin/cfxyaml /home/export/base/nsccwuxi_amd/amd_app/WORK/Zhouhl/Project/SimGO/CFX/StaticMixer.def /home/export/base/nsccwuxi_amd/amd_app/WORK/Zhouhl/Project/SimGO/CFX/StaticMixer_2_001.res yes",
   "Cluster": "aip",
   "CPU_Cost": 0.012777777777777779,
   "Mem_Cost": 0,
   "GPU_Cost": 0,
   "App_Cost": 0,
   "StartDate": "2020/11/12",
   "Project": "default"
  },
  {
   "CPU_Hours": 0.0011111111111111111,
   "Mem_GB_Hours": 0.00000675201416015625,
   "GPU_Hours": 0.0011111111111111111,
   "Runtime": 0.0011111111111111111,
   "App_Hours": 0.0011111111111111111,
   "JobId": "17179",
   "Queue": "local",
   "User": "amd_app",
   "App": "PointWise",
   "JobDescription": "PointWise",
   "JobName": "cubevnc",
   "Cluster": "aip",
   "CPU_Cost": 0.0005555555555555556,
   "Mem_Cost": 0,
   "GPU_Cost": 0.0005555555555555556,
   "App_Cost": 0,
   "StartDate": "2020/11/18",
   "Project": "default"
  },
  {
   "CPU_Hours": 0.0011111111111111111,
   "Mem_GB_Hours": 0.000005931854248046875,
   "GPU_Hours": 0,
   "Runtime": 0.0002777777777777778,
   "App_Hours": 0.0011111111111111111,
   "JobId": "17240",
   "Queue": "q_x86_share",
   "User": "amd_app",
   "JobName": "chtMultiRegionSimpleFoam -parallel",
   "Cluster": "aip",
   "CPU_Cost": 0.0005555555555555556,
   "Mem_Cost": 0,
   "GPU_Cost": 0,
   "App_Cost": 0,
   "StartDate": "2020/11/18",
   "Project": "default"
  },
  {
   "CPU_Hours": 6.031177293501388,
   "Mem_GB_Hours": 0.010604012616445625,
   "GPU_Hours": 0,
   "Runtime": 0.09278734297694444,
   "App_Hours": 6.031177293501388,
   "JobId": "15599",
   "Queue": "q_x86_share_plus",
   "User": "amd_app",
   "App": "StarCCM",
   "JobDescription": "StarCCM",
   "JobName": "cubevnc",
   "Cluster": "aip",
   "CPU_Cost": 3.015588646750694,
   "Mem_Cost": 0,
   "GPU_Cost": 0,
   "App_Cost": 0,
   "StartDate": "2020/11/02",
   "Project": "default"
  },
  {
   "CPU_Hours": 0.10111111111111111,
   "Mem_GB_Hours": 0.05903110928005642,
   "GPU_Hours": 0.10111111111111111,
   "Runtime": 0.10111111111111111,
   "App_Hours": 0.10111111111111111,
   "JobId": "16150",
   "Queue": "local",
   "User": "amd_app",
   "JobName": "cubevnc",
   "Cluster": "aip",
   "CPU_Cost": 0.050555555555555555,
   "Mem_Cost": 0,
   "GPU_Cost": 0.050555555555555555,
   "App_Cost": 0,
   "StartDate": "2020/11/11",
   "Project": "default"
  },
  {
   "CPU_Hours": 0.13777777777777778,
   "Mem_GB_Hours": 0.0030546739366319442,
   "GPU_Hours": 0,
   "Runtime": 0.017222222222222222,
   "App_Hours": 0.13777777777777778,
   "JobId": "18203",
   "Queue": "q_x86_share",
   "User": "amd_app",
   "App": "ICESimulator",
   "JobName": "/home/export/online3/amd_share/anaconda/bin/python3 /home/export/online3/amd_app/wxy/cas2foam/generate.py q_x86_share 8 100 1 20 /home/export/online3/amd_app/IcesimProject/pcb200 pcb200.cas",
   "Cluster": "aip",
   "CPU_Cost": 0.06888888888888889,
   "Mem_Cost": 0,
   "GPU_Cost": 0,
   "App_Cost": 0,
   "StartDate": "2020/11/25",
   "Project": "default"
  },
  {
   "CPU_Hours": 0.3088888888888889,
   "Mem_GB_Hours": 0.008935476938883464,
   "GPU_Hours": 0,
   "Runtime": 0.07722222222222222,
   "App_Hours": 0.3088888888888889,
   "JobId": "17989",
   "Queue": "q_x86_expr",
   "User": "amd_app",
   "App": "ICESimulator",
   "JobName": "/home/export/online3/amd_share/anaconda/bin/python3 /home/export/online3/amd_app/wxy/cas2foam/generate.py q_x86_expr 4 5 0.01 100 /home/export/online3/amd_app/sanre00 sanre00.cas",
   "Cluster": "aip",
   "CPU_Cost": 0.15444444444444444,
   "Mem_Cost": 0,
   "GPU_Cost": 0,
   "App_Cost": 0,
   "StartDate": "2020/11/24",
   "Project": "default"
  },
  {
   "CPU_Hours": 0.006111111111111111,
   "Mem_GB_Hours": 0.0014383527967664932,
   "GPU_Hours": 0.006111111111111111,
   "Runtime": 0.006111111111111111,
   "App_Hours": 0.006111111111111111,
   "JobId": "18349",
   "Queue": "local",
   "User": "amd_app",
   "App": "ICEM-CFD",
   "JobDescription": "ICEM-CFD",
   "JobName": "cubevnc",
   "Cluster": "aip",
   "CPU_Cost": 0.0030555555555555557,
   "Mem_Cost": 0,
   "GPU_Cost": 0.0030555555555555557,
   "App_Cost": 0,
   "StartDate": "2020/11/26",
   "Project": "default"
  },
  {
   "CPU_Hours": 0.25555555555555554,
   "Mem_GB_Hours": 0.0044070084889729815,
   "GPU_Hours": 0,
   "Runtime": 0.03194444444444444,
   "App_Hours": 0.25555555555555554,
   "JobId": "18176",
   "Queue": "q_x86_share",
   "User": "amd_app",
   "App": "ICESimulator",
   "JobName": "/home/export/online3/amd_share/anaconda/bin/python3 /home/export/online3/amd_app/wxy/cas2foam/generate.py q_x86_share 8 100 1 20 /home/export/online3/amd_app/IcesimProject/RF01 RF01.cas",
   "Cluster": "aip",
   "CPU_Cost": 0.12777777777777777,
   "Mem_Cost": 0,
   "GPU_Cost": 0,
   "App_Cost": 0,
   "StartDate": "2020/11/25",
   "Project": "default"
  },
  {
   "CPU_Hours": 0.011111111111111112,
   "Mem_GB_Hours": 0.0001152250501844618,
   "GPU_Hours": 0,
   "Runtime": 0.005555555555555556,
   "App_Hours": 0.011111111111111112,
   "JobId": "16321",
   "Queue": "q_x86_share",
   "User": "amd_app",
   "App": "CFX2020",
   "JobDescription": "CFX2020",
   "JobName": "/home/export/online3/amd_share/shangruan/bin/cfxyaml2020 /home/export/base/nsccwuxi_amd/amd_app/WORK/Zhouhl/Project/SimGO/CFX/StaticMixer.def yes",
   "Cluster": "aip",
   "CPU_Cost": 0.005555555555555556,
   "Mem_Cost": 0,
   "GPU_Cost": 0,
   "App_Cost": 0,
   "StartDate": "2020/11/12",
   "Project": "default"
  },
  {
   "CPU_Hours": 0.03,
   "Mem_GB_Hours": 0.00021183013916015625,
   "GPU_Hours": 0,
   "Runtime": 0.015,
   "App_Hours": 0.03,
   "JobId": "16062",
   "Queue": "q_x86_expr",
   "User": "amd_app",
   "App": "CFX2020",
   "JobDescription": "CFX2020",
   "JobName": "/home/export/online3/amd_share/shangruan/bin/cfxyaml2020 /home/export/base/nsccwuxi_amd/amd_app/WORK/Zhouhl/Project/SimGO/CFX/StaticMixer.def yes",
   "Cluster": "aip",
   "CPU_Cost": 0.015,
   "Mem_Cost": 0,
   "GPU_Cost": 0,
   "App_Cost": 0,
   "StartDate": "2020/11/10",
   "Project": "default"
  },
  {
   "CPU_Hours": 0,
   "Mem_GB_Hours": 0,
   "GPU_Hours": 0,
   "Runtime": 0,
   "App_Hours": 0,
   "JobId": "16973",
   "Queue": "q_x86_share",
   "User": "amd_app",
   "JobName": "pwd -parallel",
   "Cluster": "aip",
   "CPU_Cost": 0,
   "Mem_Cost": 0,
   "GPU_Cost": 0,
   "App_Cost": 0,
   "StartDate": "2020/11/16",
   "Project": "default"
  },
  {
   "CPU_Hours": 0.15555555555555556,
   "Mem_GB_Hours": 0.0013868437872992623,
   "GPU_Hours": 0,
   "Runtime": 0.019444444444444445,
   "App_Hours": 0.15555555555555556,
   "JobId": "18477",
   "Queue": "q_x86_share",
   "User": "amd_app",
   "App": "ICESimulator",
   "JobDescription": "jixiang_nomerge",
   "JobName": "/home/export/online3/amd_share/anaconda/bin/python3 /home/export/online3/amd_app/wxy/cas2foam/generate.py q_x86_share 8 100 1 20 /home/export/online3/amd_app/IcesimProject/jixiang_nomerge jixiang_nomerge.cas",
   "Cluster": "aip",
   "CPU_Cost": 0.07777777777777778,
   "Mem_Cost": 0,
   "GPU_Cost": 0,
   "App_Cost": 0,
   "StartDate": "2020/11/27",
   "Project": "default"
  },
  {
   "CPU_Hours": 0.9787595458224999,
   "Mem_GB_Hours": 0.04411968686442529,
   "GPU_Hours": 0,
   "Runtime": 0.0752891958325,
   "App_Hours": 0.9787595458224999,
   "JobId": "16361",
   "Queue": "q_x86_share_plus",
   "User": "amd_app",
   "App": "StarCCM",
   "JobDescription": "StarCCM",
   "JobName": "cubevnc",
   "Cluster": "aip",
   "CPU_Cost": 0.48937977291124996,
   "Mem_Cost": 0,
   "GPU_Cost": 0,
   "App_Cost": 0,
   "StartDate": "2020/11/12",
   "Project": "default"
  },
  {
   "CPU_Hours": 0,
   "Mem_GB_Hours": 0,
   "GPU_Hours": 0,
   "Runtime": 0,
   "App_Hours": 0,
   "JobId": "16155",
   "Queue": "",
   "User": "amd_app",
   "App": "Hypermesh",
   "JobDescription": "Hypermesh",
   "Cluster": "aip",
   "CPU_Cost": 0,
   "Mem_Cost": 0,
   "GPU_Cost": 0,
   "App_Cost": 0,
   "StartDate": "2020/11/11"
  },
  {
   "CPU_Hours": 0.8955555555555555,
   "Mem_GB_Hours": 0.05416448805067274,
   "GPU_Hours": 0,
   "Runtime": 0.06888888888888889,
   "App_Hours": 0.8955555555555555,
   "JobId": "16501",
   "Queue": "q_x86_cn_sim_plus",
   "User": "amd_app",
   "App": "StarCCM",
   "JobDescription": "StarCCM",
   "JobName": "cubevnc",
   "Cluster": "aip",
   "CPU_Cost": 0.4477777777777778,
   "Mem_Cost": 0,
   "GPU_Cost": 0,
   "App_Cost": 0,
   "StartDate": "2020/11/13",
   "Project": "default"
  },
  {
   "CPU_Hours": 0.9930555555555555,
   "Mem_GB_Hours": 0.0022029876708984375,
   "GPU_Hours": 0,
   "Runtime": 0.015277777777777777,
   "App_Hours": 0.9930555555555555,
   "JobId": "15601",
   "Queue": "q_x86_share_plus",
   "User": "amd_app",
   "App": "StarCCM",
   "JobDescription": "StarCCM",
   "JobName": "cubevnc",
   "Cluster": "aip",
   "CPU_Cost": 0.49652777777777773,
   "Mem_Cost": 0,
   "GPU_Cost": 0,
   "App_Cost": 0,
   "StartDate": "2020/11/02",
   "Project": "default"
  },
  {
   "CPU_Hours": 2.648969567002222,
   "Mem_GB_Hours": 0.1481344774980912,
   "GPU_Hours": 0,
   "Runtime": 0.3311211958752778,
   "App_Hours": 2.648969567002222,
   "JobId": "18174",
   "Queue": "q_x86_share",
   "User": "amd_app",
   "App": "ICESimulator",
   "JobName": "/home/export/online3/amd_share/anaconda/bin/python3 /home/export/online3/amd_app/wxy/cas2foam/generate.py q_x86_share 8 100 1 20 /home/export/online3/amd_app/IcesimProject/ex800_nomerge ex800_nomerge.cas",
   "Cluster": "aip",
   "CPU_Cost": 1.324484783501111,
   "Mem_Cost": 0,
   "GPU_Cost": 0,
   "App_Cost": 0,
   "StartDate": "2020/11/25",
   "Project": "default"
  },
  {
   "CPU_Hours": 0.004166666666666667,
   "Mem_GB_Hours": 0.00003937085469563802,
   "GPU_Hours": 0,
   "Runtime": 0.004166666666666667,
   "App_Hours": 0.004166666666666667,
   "JobId": "17476",
   "Queue": "q_x86_cn_sim",
   "User": "amd_app",
   "App": "StarCCM",
   "JobDescription": "Batch-StarCCM",
   "JobName": "/home/export/online3/amd_share/shangruan/bin/starccmyaml /home/export/base/nsccwuxi_amd/amd_app/WORK/Zhouhl/Project/SimGO/STARCCM/adjointWing_start_200@00200.sim",
   "Cluster": "aip",
   "CPU_Cost": 0.0020833333333333333,
   "Mem_Cost": 0,
   "GPU_Cost": 0,
   "App_Cost": 0,
   "StartDate": "2020/11/20",
   "Project": "default"
  },
  {
   "CPU_Hours": 0.0275,
   "Mem_GB_Hours": 0.000030043919881184896,
   "GPU_Hours": 0,
   "Runtime": 0.0008333333333333334,
   "App_Hours": 0.0275,
   "JobId": "17363",
   "Queue": "q_x86_cn_sim_plus",
   "User": "amd_app",
   "App": "StarCCM",
   "JobDescription": "StarCCM",
   "JobName": "cubevnc",
   "Cluster": "aip",
   "CPU_Cost": 0.01375,
   "Mem_Cost": 0,
   "GPU_Cost": 0,
   "App_Cost": 0,
   "StartDate": "2020/11/19",
   "Project": "default"
  },
  {
   "CPU_Hours": 0.011111111111111112,
   "Mem_GB_Hours": 0.00011533101399739584,
   "GPU_Hours": 0,
   "Runtime": 0.005555555555555556,
   "App_Hours": 0.011111111111111112,
   "JobId": "16302",
   "Queue": "q_x86_share",
   "User": "amd_app",
   "App": "CFX",
   "JobDescription": "Batch-CFX",
   "JobName": "/home/export/online3/amd_share/shangruan/bin/cfxyaml /home/export/base/nsccwuxi_amd/amd_app/WORK/Zhouhl/Project/SimGO/CFX/StaticMixer.def /home/export/base/nsccwuxi_amd/amd_app/WORK/Zhouhl/Project/SimGO/CFX/StaticMixer_2_001.res yes",
   "Cluster": "aip",
   "CPU_Cost": 0.005555555555555556,
   "Mem_Cost": 0,
   "GPU_Cost": 0,
   "App_Cost": 0,
   "StartDate": "2020/11/12",
   "Project": "default"
  },
  {
   "CPU_Hours": 0.008888888888888889,
   "Mem_GB_Hours": 0.00002093844943576389,
   "GPU_Hours": 0,
   "Runtime": 0.0022222222222222222,
   "App_Hours": 0.008888888888888889,
   "JobId": "18509",
   "Queue": "q_x86_expr",
   "User": "amd_app",
   "App": "CFX",
   "JobDescription": "Batch-CFX",
   "JobName": "/home/export/online3/amd_share/shangruan/bin/cfxyaml /home/export/base/nsccwuxi_amd/amd_app/WORK/Simforge_tutorial/StaticMixer.def no",
   "Cluster": "aip",
   "CPU_Cost": 0.0044444444444444444,
   "Mem_Cost": 0,
   "GPU_Cost": 0,
   "App_Cost": 0,
   "StartDate": "2020/11/27",
   "Project": "default"
  },
  {
   "CPU_Hours": 4.001819872357777,
   "Mem_GB_Hours": 7.056592993872753,
   "GPU_Hours": 4.001819872357777,
   "Runtime": 4.001819872357777,
   "App_Hours": 4.001819872357777,
   "JobId": "17672",
   "Queue": "local",
   "User": "amd_app",
   "App": "ParaView",
   "JobDescription": "ParaView",
   "JobName": "cubevnc",
   "Cluster": "aip",
   "CPU_Cost": 2.0009099361788887,
   "Mem_Cost": 0,
   "GPU_Cost": 2.0009099361788887,
   "App_Cost": 0,
   "StartDate": "2020/11/21",
   "Project": "default"
  },
  {
   "CPU_Hours": 0.0476116559425,
   "Mem_GB_Hours": 0.0005155806264397049,
   "GPU_Hours": 0,
   "Runtime": 0.005290183993611111,
   "App_Hours": 0.0476116559425,
   "JobId": "17346",
   "Queue": "q_x86_expr_plus",
   "User": "amd_app",
   "App": "StarCCM",
   "JobDescription": "StarCCM",
   "JobName": "cubevnc",
   "Cluster": "aip",
   "CPU_Cost": 0.02380582797125,
   "Mem_Cost": 0,
   "GPU_Cost": 0,
   "App_Cost": 0,
   "StartDate": "2020/11/19",
   "Project": "default"
  },
  {
   "CPU_Hours": 0.03611111111111111,
   "Mem_GB_Hours": 0.0002549118465847439,
   "GPU_Hours": 0,
   "Runtime": 0.018055555555555554,
   "App_Hours": 0.03611111111111111,
   "JobId": "16527",
   "Queue": "q_x86_share",
   "User": "amd_app",
   "App": "Abaqus",
   "JobDescription": "Batch-Abaqus",
   "JobName": "/home/export/online3/amd_share/shangruan/bin/abaqus614 /home/export/base/nsccwuxi_amd/amd_app/WORK/dzj/dzj_online1/abaqustest/car2car/KX-CRH2-WHEEL-IMB-40.inp",
   "Cluster": "aip",
   "CPU_Cost": 0.018055555555555554,
   "Mem_Cost": 0,
   "GPU_Cost": 0,
   "App_Cost": 0,
   "StartDate": "2020/11/13",
   "Project": "default"
  },
  {
   "CPU_Hours": 0.20780919498555556,
   "Mem_GB_Hours": 0.009722514347831277,
   "GPU_Hours": 0,
   "Runtime": 0.05195229874638889,
   "App_Hours": 0.20780919498555556,
   "JobId": "18479",
   "Queue": "q_x86_vio_share",
   "User": "amd_app",
   "App": "ICESimulator",
   "JobDescription": "pcb200",
   "JobName": "/home/export/online3/amd_share/anaconda/bin/python3 /home/export/online3/amd_app/wxy/cas2foam/generate.py q_x86_vio_share 4 100 1 20 /home/export/online3/amd_app/IcesimProject/pcb200 pcb200.cas",
   "Cluster": "aip",
   "CPU_Cost": 0.10390459749277778,
   "Mem_Cost": 0,
   "GPU_Cost": 0,
   "App_Cost": 0,
   "StartDate": "2020/11/27",
   "Project": "default"
  },
  {
   "CPU_Hours": 0.1,
   "Mem_GB_Hours": 0.0023996829986572266,
   "GPU_Hours": 0,
   "Runtime": 0.0125,
   "App_Hours": 0.1,
   "JobId": "18217",
   "Queue": "q_x86_share",
   "User": "amd_app",
   "App": "ICESimulator",
   "JobName": "/home/export/online3/amd_share/anaconda/bin/python3 /home/export/online3/amd_app/wxy/cas2foam/generate.py q_x86_share 8 100 1 20 /home/export/online3/amd_app/IcesimProject/pcb200 pcb200.cas",
   "Cluster": "aip",
   "CPU_Cost": 0.05,
   "Mem_Cost": 0,
   "GPU_Cost": 0,
   "App_Cost": 0,
   "StartDate": "2020/11/25",
   "Project": "default"
  },
  {
   "CPU_Hours": 0.017777777777777778,
   "Mem_GB_Hours": 0.00023566351996527778,
   "GPU_Hours": 0,
   "Runtime": 0.0044444444444444444,
   "App_Hours": 0.017777777777777778,
   "JobId": "18881",
   "Queue": "q_x86_vio_share",
   "User": "amd_app",
   "App": "ICESimulator",
   "JobDescription": "ss",
   "JobName": "/home/export/online3/amd_share/anaconda/bin/python3 /home/export/online3/amd_app/wxy/cas2foam/generate.py q_x86_vio_share 4 100 20 /home/export/online3/amd_app/IcesimProject/ss ss.cas",
   "Cluster": "aip",
   "CPU_Cost": 0.008888888888888889,
   "Mem_Cost": 0,
   "GPU_Cost": 0,
   "App_Cost": 0,
   "StartDate": "2020/11/30",
   "Project": "default"
  },
  {
   "CPU_Hours": 0.0011111111111111111,
   "Mem_GB_Hours": 0.000001662572224934896,
   "GPU_Hours": 0,
   "Runtime": 0.0002777777777777778,
   "App_Hours": 0.0011111111111111111,
   "JobId": "17234",
   "Queue": "q_x86_share",
   "User": "amd_app",
   "JobName": "chtMultiRegionSimpleFoam -parallel",
   "Cluster": "aip",
   "CPU_Cost": 0.0005555555555555556,
   "Mem_Cost": 0,
   "GPU_Cost": 0,
   "App_Cost": 0,
   "StartDate": "2020/11/18",
   "Project": "default"
  },
  {
   "CPU_Hours": 0.000012736540277777777,
   "Mem_GB_Hours": 9.775512328677707e-8,
   "GPU_Hours": 0.000012736540277777777,
   "Runtime": 0.000012736540277777777,
   "App_Hours": 0.000012736540277777777,
   "JobId": "15985",
   "Queue": "local",
   "User": "amd_app",
   "App": "ParaView",
   "JobDescription": "ParaView",
   "JobName": "cubevnc",
   "Cluster": "aip",
   "CPU_Cost": 0.000006368270138888889,
   "Mem_Cost": 0,
   "GPU_Cost": 0.000006368270138888889,
   "App_Cost": 0,
   "StartDate": "2020/11/06",
   "Project": "default"
  },
  {
   "CPU_Hours": 0.01,
   "Mem_GB_Hours": 0.000023546218872070314,
   "GPU_Hours": 0,
   "Runtime": 0.0025,
   "App_Hours": 0.01,
   "JobId": "18501",
   "Queue": "q_x86_expr",
   "User": "amd_app",
   "App": "CFX",
   "JobDescription": "Batch-CFX",
   "JobName": "/home/export/online3/amd_share/shangruan/bin/cfxyaml /home/export/base/nsccwuxi_amd/amd_app/WORK/Zhouhl/Project/SimGO/CFX/StaticMixer_2.def no",
   "Cluster": "aip",
   "CPU_Cost": 0.005,
   "Mem_Cost": 0,
   "GPU_Cost": 0,
   "App_Cost": 0,
   "StartDate": "2020/11/27",
   "Project": "default"
  },
  {
   "CPU_Hours": 0.08009040352,
   "Mem_GB_Hours": 0.0002543918107582601,
   "GPU_Hours": 0,
   "Runtime": 0.01001130044,
   "App_Hours": 0.08009040352,
   "JobId": "17200",
   "Queue": "q_x86_share",
   "User": "amd_app",
   "App": "ICESimulator",
   "JobName": "/home/export/online3/amd_share/anaconda/bin/python3 /home/export/online3/amd_app/wxy/cas2foam/generate.py q_x86_share 8 /home/export/online3/amd_app/wxy/openfoamtest/icepakcases/sanrecase/ sanre02.cas",
   "Cluster": "aip",
   "CPU_Cost": 0.04004520176,
   "Mem_Cost": 0,
   "GPU_Cost": 0,
   "App_Cost": 0,
   "StartDate": "2020/11/18",
   "Project": "default"
  },
  {
   "CPU_Hours": 0.27342925051555556,
   "Mem_GB_Hours": 0.0016870696524642521,
   "GPU_Hours": 0,
   "Runtime": 0.034178656314444444,
   "App_Hours": 0.27342925051555556,
   "JobId": "18171",
   "Queue": "q_x86_share",
   "User": "amd_app",
   "App": "ICESimulator",
   "JobName": "/home/export/online3/amd_share/anaconda/bin/python3 /home/export/online3/amd_app/wxy/cas2foam/generate.py q_x86_share 8 100 1 20 /home/export/online3/amd_app/IcesimProject/RF01 RF01.cas",
   "Cluster": "aip",
   "CPU_Cost": 0.13671462525777778,
   "Mem_Cost": 0,
   "GPU_Cost": 0,
   "App_Cost": 0,
   "StartDate": "2020/11/25",
   "Project": "default"
  },
  {
   "CPU_Hours": 0.02,
   "Mem_GB_Hours": 0.00007066726684570313,
   "GPU_Hours": 0,
   "Runtime": 0.005,
   "App_Hours": 0.02,
   "JobId": "15984",
   "Queue": "q_x86_cn_sim",
   "User": "amd_app",
   "App": "AnsysAPDL",
   "JobDescription": "Batch-AnsysAPDL",
   "JobName": "/home/export/online3/amd_share/shangruan/ansys/csubansys /home/export/base/nsccwuxi_amd/amd_app/WORK/dzj/apdl/td-27/Hot_Rolling_Model.dat",
   "Cluster": "aip",
   "CPU_Cost": 0.01,
   "Mem_Cost": 0,
   "GPU_Cost": 0,
   "App_Cost": 0,
   "StartDate": "2020/11/06",
   "Project": "default"
  },
  {
   "CPU_Hours": 0.28723354940583334,
   "Mem_GB_Hours": 0.11956659726629447,
   "GPU_Hours": 0.28723354940583334,
   "Runtime": 0.28723354940583334,
   "App_Hours": 0.28723354940583334,
   "JobId": "18812",
   "Queue": "local",
   "User": "amd_app",
   "App": "ParaView",
   "JobDescription": "ParaView",
   "JobName": "cubevnc",
   "Cluster": "aip",
   "CPU_Cost": 0.14361677470291667,
   "Mem_Cost": 0,
   "GPU_Cost": 0.14361677470291667,
   "App_Cost": 0,
   "StartDate": "2020/11/29",
   "Project": "default"
  },
  {
   "CPU_Hours": 0.054178755947777775,
   "Mem_GB_Hours": 0.03802641320646683,
   "GPU_Hours": 0,
   "Runtime": 0.054178755947777775,
   "App_Hours": 0.054178755947777775,
   "JobId": "16159",
   "Queue": "local",
   "User": "amd_app",
   "JobName": "cubevnc",
   "Cluster": "aip",
   "CPU_Cost": 0.027089377973888887,
   "Mem_Cost": 0,
   "GPU_Cost": 0,
   "App_Cost": 0,
   "StartDate": "2020/11/11",
   "Project": "default"
  },
  {
   "CPU_Hours": 1.39,
   "Mem_GB_Hours": 0.0010940678914388021,
   "GPU_Hours": 0,
   "Runtime": 0.11583333333333333,
   "App_Hours": 1.39,
   "JobId": "17574",
   "Queue": "q_x86_expr",
   "User": "amd_app",
   "JobName": "fluent-job /home/export/base/nsccwuxi_amd/amd_app/online3/Zhouhl/Project/SimGO/Fluent/mixing_tank/mixing_tank.jou 3ddp",
   "Cluster": "aip",
   "CPU_Cost": 0.695,
   "Mem_Cost": 0,
   "GPU_Cost": 0,
   "App_Cost": 0,
   "StartDate": "2020/11/20",
   "Project": "default"
  },
  {
   "CPU_Hours": 4.001286823327779,
   "Mem_GB_Hours": 7.483166075983888,
   "GPU_Hours": 4.001286823327779,
   "Runtime": 4.001286823327779,
   "App_Hours": 4.001286823327779,
   "JobId": "17850",
   "Queue": "local",
   "User": "amd_app",
   "App": "ParaView",
   "JobDescription": "ParaView",
   "JobName": "cubevnc",
   "Cluster": "aip",
   "CPU_Cost": 2.0006434116638894,
   "Mem_Cost": 0,
   "GPU_Cost": 2.0006434116638894,
   "App_Cost": 0,
   "StartDate": "2020/11/23",
   "Project": "default"
  },
  {
   "CPU_Hours": 0.005555555555555556,
   "Mem_GB_Hours": 0.001297336154513889,
   "GPU_Hours": 0.005555555555555556,
   "Runtime": 0.005555555555555556,
   "App_Hours": 0.005555555555555556,
   "JobId": "18351",
   "Queue": "local",
   "User": "amd_app",
   "App": "ICEM-CFD",
   "JobDescription": "ICEM-CFD",
   "JobName": "cubevnc",
   "Cluster": "aip",
   "CPU_Cost": 0.002777777777777778,
   "Mem_Cost": 0,
   "GPU_Cost": 0.002777777777777778,
   "App_Cost": 0,
   "StartDate": "2020/11/26",
   "Project": "default"
  },
  {
   "CPU_Hours": 0.015555555555555555,
   "Mem_GB_Hours": 0.00010463290744357639,
   "GPU_Hours": 0,
   "Runtime": 0.0022222222222222222,
   "App_Hours": 0.015555555555555555,
   "JobId": "16964",
   "Queue": "q_x86_share",
   "User": "amd_app",
   "JobName": "chtMultiRegionSimpleFoam -parallel",
   "Cluster": "aip",
   "CPU_Cost": 0.0077777777777777776,
   "Mem_Cost": 0,
   "GPU_Cost": 0,
   "App_Cost": 0,
   "StartDate": "2020/11/16",
   "Project": "default"
  },
  {
   "CPU_Hours": 0.0011111111111111111,
   "Mem_GB_Hours": 0.000006747775607638889,
   "GPU_Hours": 0.0011111111111111111,
   "Runtime": 0.0011111111111111111,
   "App_Hours": 0.0011111111111111111,
   "JobId": "17057",
   "Queue": "local",
   "User": "amd_app",
   "App": "PointWise",
   "JobDescription": "PointWise",
   "JobName": "cubevnc",
   "Cluster": "aip",
   "CPU_Cost": 0.0005555555555555556,
   "Mem_Cost": 0,
   "GPU_Cost": 0.0005555555555555556,
   "App_Cost": 0,
   "StartDate": "2020/11/17",
   "Project": "default"
  },
  {
   "CPU_Hours": 0.6261111111111112,
   "Mem_GB_Hours": 0.005995140075683594,
   "GPU_Hours": 0,
   "Runtime": 0.012777777777777779,
   "App_Hours": 0.6261111111111112,
   "JobId": "16374",
   "Queue": "q_x86_share_plus",
   "User": "amd_app",
   "App": "StarCCM",
   "JobDescription": "share_plus_48c",
   "JobName": "cubevnc",
   "Cluster": "aip",
   "CPU_Cost": 0.3130555555555556,
   "Mem_Cost": 0,
   "GPU_Cost": 0,
   "App_Cost": 0,
   "StartDate": "2020/11/12",
   "Project": "default"
  },
  {
   "CPU_Hours": 0.030833333333333334,
   "Mem_GB_Hours": 0.010086135864257812,
   "GPU_Hours": 0.030833333333333334,
   "Runtime": 0.030833333333333334,
   "App_Hours": 0.030833333333333334,
   "JobId": "17890",
   "Queue": "local",
   "User": "amd_app",
   "App": "FluentMeshing",
   "JobDescription": "FluentMeshing",
   "JobName": "cubevnc",
   "Cluster": "aip",
   "CPU_Cost": 0.015416666666666667,
   "Mem_Cost": 0,
   "GPU_Cost": 0.015416666666666667,
   "App_Cost": 0,
   "StartDate": "2020/11/23",
   "Project": "default"
  },
  {
   "CPU_Hours": 0.0011111111111111111,
   "Mem_GB_Hours": 0.00000370025634765625,
   "GPU_Hours": 0,
   "Runtime": 0.0011111111111111111,
   "App_Hours": 0.0011111111111111111,
   "JobId": "16977",
   "Queue": "q_x86_share",
   "User": "amd_app",
   "JobName": "pwd",
   "Cluster": "aip",
   "CPU_Cost": 0.0005555555555555556,
   "Mem_Cost": 0,
   "GPU_Cost": 0,
   "App_Cost": 0,
   "StartDate": "2020/11/16",
   "Project": "default"
  },
  {
   "CPU_Hours": 0.018622124804722223,
   "Mem_GB_Hours": 0.0012032508850097657,
   "GPU_Hours": 0,
   "Runtime": 0.018622124804722223,
   "App_Hours": 0.018622124804722223,
   "JobId": "15627",
   "Queue": "q_x86_cn_sim",
   "User": "amd_app",
   "App": "ICESimulator",
   "JobName": "/home/export/online3/amd_share/anaconda/bin/python3 /home/export/online3/amd_app/wxy/cas2foam/generate.py /home/export/online3/amd_app/wxy/foamextend_project/icepak_test jixiang_nomerge.cas",
   "Cluster": "aip",
   "CPU_Cost": 0.009311062402361112,
   "Mem_Cost": 0,
   "GPU_Cost": 0,
   "App_Cost": 0,
   "StartDate": "2020/11/02",
   "Project": "default"
  },
  {
   "CPU_Hours": 1.8670129614097222,
   "Mem_GB_Hours": 0.6565456322848635,
   "GPU_Hours": 1.8670129614097222,
   "Runtime": 1.8670129614097222,
   "App_Hours": 1.8670129614097222,
   "JobId": "16236",
   "Queue": "local",
   "User": "amd_app",
   "App": "LSPrePost",
   "JobDescription": "LSPrePost",
   "JobName": "cubevnc",
   "Cluster": "aip",
   "CPU_Cost": 0.9335064807048611,
   "Mem_Cost": 0,
   "GPU_Cost": 0.9335064807048611,
   "App_Cost": 0,
   "StartDate": "2020/11/11",
   "Project": "default"
  },
  {
   "CPU_Hours": 4.001292854036944,
   "Mem_GB_Hours": 6.413353946406994,
   "GPU_Hours": 4.001292854036944,
   "Runtime": 4.001292854036944,
   "App_Hours": 4.001292854036944,
   "JobId": "18783",
   "Queue": "local",
   "User": "amd_app",
   "App": "ParaView",
   "JobDescription": "ParaView",
   "JobName": "cubevnc",
   "Cluster": "aip",
   "CPU_Cost": 2.000646427018472,
   "Mem_Cost": 0,
   "GPU_Cost": 2.000646427018472,
   "App_Cost": 0,
   "StartDate": "2020/11/29",
   "Project": "default"
  },
  {
   "CPU_Hours": 0.0025,
   "Mem_GB_Hours": 0.00002353668212890625,
   "GPU_Hours": 0,
   "Runtime": 0.0025,
   "App_Hours": 0.0025,
   "JobId": "18358",
   "Queue": "q_x86_expr",
   "User": "amd_app",
   "App": "SWOF",
   "JobDescription": "SWOF_setFields",
   "JobName": "swof_/home/export/base/nsccwuxi_amd/amd_app/WORK/Zhouhl/Project/OF/OpenFOAM-GUI/OF_test_Setfields36213",
   "Cluster": "aip",
   "CPU_Cost": 0.00125,
   "Mem_Cost": 0,
   "GPU_Cost": 0,
   "App_Cost": 0,
   "StartDate": "2020/11/26",
   "Project": "default"
  },
  {
   "CPU_Hours": 0.07333333333333333,
   "Mem_GB_Hours": 0.00005781385633680556,
   "GPU_Hours": 0,
   "Runtime": 0.006111111111111111,
   "App_Hours": 0.07333333333333333,
   "JobId": "17510",
   "Queue": "q_x86_share",
   "User": "amd_app",
   "JobName": "fluent-job 3ddp",
   "Cluster": "aip",
   "CPU_Cost": 0.03666666666666667,
   "Mem_Cost": 0,
   "GPU_Cost": 0,
   "App_Cost": 0,
   "StartDate": "2020/11/20",
   "Project": "default"
  },
  {
   "CPU_Hours": 0.0022222222222222222,
   "Mem_GB_Hours": 0,
   "GPU_Hours": 0,
   "Runtime": 0.0002777777777777778,
   "App_Hours": 0.0022222222222222222,
   "JobId": "16974",
   "Queue": "q_x86_share",
   "User": "amd_app",
   "JobName": "pwd",
   "Cluster": "aip",
   "CPU_Cost": 0.0011111111111111111,
   "Mem_Cost": 0,
   "GPU_Cost": 0,
   "App_Cost": 0,
   "StartDate": "2020/11/16",
   "Project": "default"
  },
  {
   "CPU_Hours": 0.526966315773889,
   "Mem_GB_Hours": 0.30854110102652654,
   "GPU_Hours": 0.526966315773889,
   "Runtime": 0.526966315773889,
   "App_Hours": 0.526966315773889,
   "JobId": "16161",
   "Queue": "local",
   "User": "amd_app",
   "JobName": "cubevnc",
   "Cluster": "aip",
   "CPU_Cost": 0.2634831578869445,
   "Mem_Cost": 0,
   "GPU_Cost": 0.2634831578869445,
   "App_Cost": 0,
   "StartDate": "2020/11/11",
   "Project": "default"
  },
  {
   "CPU_Hours": 0.0022222222222222222,
   "Mem_GB_Hours": 0.000013806025187174479,
   "GPU_Hours": 0,
   "Runtime": 0.0002777777777777778,
   "App_Hours": 0.0022222222222222222,
   "JobId": "16971",
   "Queue": "q_x86_expr",
   "User": "amd_app",
   "JobName": "chtMultiRegionSimpleFoam -parallel",
   "Cluster": "aip",
   "CPU_Cost": 0.0011111111111111111,
   "Mem_Cost": 0,
   "GPU_Cost": 0,
   "App_Cost": 0,
   "StartDate": "2020/11/16",
   "Project": "default"
  },
  {
   "CPU_Hours": 0.010555555555555556,
   "Mem_GB_Hours": 0.0001963382297092014,
   "GPU_Hours": 0,
   "Runtime": 0.010555555555555556,
   "App_Hours": 0.010555555555555556,
   "JobId": "18323",
   "Queue": "q_x86_share",
   "User": "amd_app",
   "App": "SWOF",
   "JobDescription": "SWOF_fluent3DMeshToFoam",
   "JobName": "swof_/home/export/base/nsccwuxi_amd/amd_app/WORK/Zhouhl/Project/OF/OpenFOAM-GUI/OF_test/OF_test_Mesh3059",
   "Cluster": "aip",
   "CPU_Cost": 0.005277777777777778,
   "Mem_Cost": 0,
   "GPU_Cost": 0,
   "App_Cost": 0,
   "StartDate": "2020/11/26",
   "Project": "default"
  },
  {
   "CPU_Hours": 0.0005555555555555556,
   "Mem_GB_Hours": 0.000003921720716688368,
   "GPU_Hours": 0,
   "Runtime": 0.0002777777777777778,
   "App_Hours": 0.0005555555555555556,
   "JobId": "16312",
   "Queue": "q_x86_share",
   "User": "amd_app",
   "App": "Abaqus",
   "JobDescription": "Batch-Abaqus",
   "JobName": "/home/export/online3/amd_share/shangruan/bin/abaqus614 /home/export/base/nsccwuxi_amd/amd_app/WORK/dzj/dzj/abaqustest/abaumat/riserdynamics_airy_disp.inp",
   "Cluster": "aip",
   "CPU_Cost": 0.0002777777777777778,
   "Mem_Cost": 0,
   "GPU_Cost": 0,
   "App_Cost": 0,
   "StartDate": "2020/11/12",
   "Project": "default"
  },
  {
   "CPU_Hours": 0.008888888888888889,
   "Mem_GB_Hours": 0.0000156402587890625,
   "GPU_Hours": 0,
   "Runtime": 0.0011111111111111111,
   "App_Hours": 0.008888888888888889,
   "JobId": "18169",
   "Queue": "q_x86_share",
   "User": "amd_app",
   "App": "ICESimulator",
   "JobName": "/home/export/online3/amd_share/anaconda/bin/python3 /home/export/online3/amd_app/wxy/cas2foam/generate.py q_x86_share 8 100 1 20 /home/export/online3/amd_app/IcesimProject/pcb200 pcb200.cas",
   "Cluster": "aip",
   "CPU_Cost": 0.0044444444444444444,
   "Mem_Cost": 0,
   "GPU_Cost": 0,
   "App_Cost": 0,
   "StartDate": "2020/11/25",
   "Project": "default"
  },
  {
   "CPU_Hours": 0.0011111111111111111,
   "Mem_GB_Hours": 0.000008442136976453993,
   "GPU_Hours": 0,
   "Runtime": 0.0002777777777777778,
   "App_Hours": 0.0011111111111111111,
   "JobId": "17236",
   "Queue": "q_x86_share",
   "User": "amd_app",
   "JobName": "chtMultiRegionSimpleFoam -parallel",
   "Cluster": "aip",
   "CPU_Cost": 0.0005555555555555556,
   "Mem_Cost": 0,
   "GPU_Cost": 0,
   "App_Cost": 0,
   "StartDate": "2020/11/18",
   "Project": "default"
  },
  {
   "CPU_Hours": 0.02138888888888889,
   "Mem_GB_Hours": 0.0001505724589029948,
   "GPU_Hours": 0,
   "Runtime": 0.0030555555555555557,
   "App_Hours": 0.02138888888888889,
   "JobId": "16963",
   "Queue": "q_x86_share",
   "User": "amd_app",
   "JobName": "chtMultiRegionSimpleFoam -parallel",
   "Cluster": "aip",
   "CPU_Cost": 0.010694444444444446,
   "Mem_Cost": 0,
   "GPU_Cost": 0,
   "App_Cost": 0,
   "StartDate": "2020/11/16",
   "Project": "default"
  },
  {
   "CPU_Hours": 0.24666666666666667,
   "Mem_GB_Hours": 0.00019422954983181425,
   "GPU_Hours": 0,
   "Runtime": 0.020555555555555556,
   "App_Hours": 0.24666666666666667,
   "JobId": "17516",
   "Queue": "q_x86_share",
   "User": "amd_app",
   "JobName": "fluent-job 3ddp",
   "Cluster": "aip",
   "CPU_Cost": 0.12333333333333334,
   "Mem_Cost": 0,
   "GPU_Cost": 0,
   "App_Cost": 0,
   "StartDate": "2020/11/20",
   "Project": "default"
  },
  {
   "CPU_Hours": 1.6666666666666667,
   "Mem_GB_Hours": 0.0013139512803819445,
   "GPU_Hours": 0,
   "Runtime": 0.1388888888888889,
   "App_Hours": 1.6666666666666667,
   "JobId": "17521",
   "Queue": "q_x86_share",
   "User": "amd_app",
   "JobName": "fluent-job /home/export/base/nsccwuxi_amd/amd_app/online3/Zhouhl/Project/SimGO/Fluent/mixing_tank/mixing_tank.jou 3ddp",
   "Cluster": "aip",
   "CPU_Cost": 0.8333333333333334,
   "Mem_Cost": 0,
   "GPU_Cost": 0,
   "App_Cost": 0,
   "StartDate": "2020/11/20",
   "Project": "default"
  },
  {
   "CPU_Hours": 4.000726700754722,
   "Mem_GB_Hours": 0.7899658605233884,
   "GPU_Hours": 4.000726700754722,
   "Runtime": 4.000726700754722,
   "App_Hours": 4.000726700754722,
   "JobId": "18551",
   "Queue": "local",
   "User": "amd_app",
   "App": "TankSim",
   "JobDescription": "TankSim",
   "JobName": "cubevnc",
   "Cluster": "aip",
   "CPU_Cost": 2.000363350377361,
   "Mem_Cost": 0,
   "GPU_Cost": 2.000363350377361,
   "App_Cost": 0,
   "StartDate": "2020/11/27",
   "Project": "default"
  },
  {
   "CPU_Hours": 0.0002777777777777778,
   "Mem_GB_Hours": 0.0000029298994276258682,
   "GPU_Hours": 0,
   "Runtime": 0.0002777777777777778,
   "App_Hours": 0.0002777777777777778,
   "JobId": "16186",
   "Queue": "local",
   "User": "amd_app",
   "JobDescription": "test1",
   "JobName": "test",
   "Cluster": "aip",
   "CPU_Cost": 0.0001388888888888889,
   "Mem_Cost": 0,
   "GPU_Cost": 0,
   "App_Cost": 0,
   "StartDate": "2020/11/11",
   "Project": "default"
  },
  {
   "CPU_Hours": 0.0011111111111111111,
   "Mem_GB_Hours": 0.000008527967664930555,
   "GPU_Hours": 0.0011111111111111111,
   "Runtime": 0.0011111111111111111,
   "App_Hours": 0.0011111111111111111,
   "JobId": "16028",
   "Queue": "local",
   "User": "amd_app",
   "App": "FluentMesh2020",
   "JobDescription": "FluentMesh2020",
   "JobName": "cubevnc",
   "Cluster": "aip",
   "CPU_Cost": 0.0005555555555555556,
   "Mem_Cost": 0,
   "GPU_Cost": 0.0005555555555555556,
   "App_Cost": 0,
   "StartDate": "2020/11/06",
   "Project": "default"
  },
  {
   "CPU_Hours": 0.01138888888888889,
   "Mem_GB_Hours": 0.00010765711466471355,
   "GPU_Hours": 0,
   "Runtime": 0.01138888888888889,
   "App_Hours": 0.01138888888888889,
   "JobId": "17316",
   "Queue": "q_x86_expr",
   "User": "amd_app",
   "App": "StarCCM",
   "JobDescription": "Batch-StarCCM",
   "JobName": "/home/export/online3/amd_share/shangruan/bin/starccmyaml /home/export/base/nsccwuxi_amd/amd_app/WORK/Zhouhl/Project/SimGO/STARCCM/adjointWing_start.sim",
   "Cluster": "aip",
   "CPU_Cost": 0.005694444444444445,
   "Mem_Cost": 0,
   "GPU_Cost": 0,
   "App_Cost": 0,
   "StartDate": "2020/11/19",
   "Project": "default"
  },
  {
   "CPU_Hours": 0.05004508988444445,
   "Mem_GB_Hours": 0.00011788499070604113,
   "GPU_Hours": 0,
   "Runtime": 0.012511272471111112,
   "App_Hours": 0.05004508988444445,
   "JobId": "18519",
   "Queue": "q_x86_expr",
   "User": "amd_app",
   "App": "CFX",
   "JobDescription": "Batch-CFX",
   "JobName": "/home/export/online3/amd_share/shangruan/bin/cfxyaml /home/export/base/nsccwuxi_amd/amd_app/WORK/Simforge_tutorial/StaticMixer.def no",
   "Cluster": "aip",
   "CPU_Cost": 0.025022544942222225,
   "Mem_Cost": 0,
   "GPU_Cost": 0,
   "App_Cost": 0,
   "StartDate": "2020/11/27",
   "Project": "default"
  },
  {
   "CPU_Hours": 0.21639494893805555,
   "Mem_GB_Hours": 0.02439146079975876,
   "GPU_Hours": 0,
   "Runtime": 0.21639494893805555,
   "App_Hours": 0.21639494893805555,
   "JobId": "16006",
   "Queue": "q_x86_expr",
   "User": "amd_app",
   "App": "Fluent",
   "JobDescription": "Fluent",
   "JobName": "cubevnc",
   "Cluster": "aip",
   "CPU_Cost": 0.10819747446902778,
   "Mem_Cost": 0,
   "GPU_Cost": 0,
   "App_Cost": 0,
   "StartDate": "2020/11/06",
   "Project": "default"
  },
  {
   "CPU_Hours": 0.006111111111111111,
   "Mem_GB_Hours": 0.00021771113077799481,
   "GPU_Hours": 0,
   "Runtime": 0.0030555555555555557,
   "App_Hours": 0.006111111111111111,
   "JobId": "15970",
   "Queue": "q_x86_cn_sim",
   "User": "amd_app",
   "App": "ICESimulator",
   "JobName": "/home/export/online3/amd_share/anaconda/bin/python3 /home/export/online3/amd_app/wxy/cas2foam/generate.py /home/export/online3/amd_app/wxy/foamextend_project/icepak_test jixiang_nomerge.cas",
   "Cluster": "aip",
   "CPU_Cost": 0.0030555555555555557,
   "Mem_Cost": 0,
   "GPU_Cost": 0,
   "App_Cost": 0,
   "StartDate": "2020/11/05",
   "Project": "default"
  },
  {
   "CPU_Hours": 0.017777777777777778,
   "Mem_GB_Hours": 0.0005490960015190972,
   "GPU_Hours": 0,
   "Runtime": 0.0044444444444444444,
   "App_Hours": 0.017777777777777778,
   "JobId": "17232",
   "Queue": "q_x86_share",
   "User": "amd_app",
   "App": "ICESimulator",
   "JobName": "/home/export/online3/amd_share/anaconda/bin/python3 /home/export/online3/amd_app/wxy/cas2foam/generate.py q_x86_share 4 5 0.01 100 /home/export/online3/amd_app/wxy/openfoamtest/icepakcases/sanrecase/ sanre02.cas",
   "Cluster": "aip",
   "CPU_Cost": 0.008888888888888889,
   "Mem_Cost": 0,
   "GPU_Cost": 0,
   "App_Cost": 0,
   "StartDate": "2020/11/18",
   "Project": "default"
  },
  {
   "CPU_Hours": 0.0016666666666666668,
   "Mem_GB_Hours": 0,
   "GPU_Hours": 0,
   "Runtime": 0.0016666666666666668,
   "App_Hours": 0.0016666666666666668,
   "JobId": "16980",
   "Queue": "q_x86_share",
   "User": "amd_app",
   "JobName": "pwd",
   "Cluster": "aip",
   "CPU_Cost": 0.0008333333333333334,
   "Mem_Cost": 0,
   "GPU_Cost": 0,
   "App_Cost": 0,
   "StartDate": "2020/11/16",
   "Project": "default"
  },
  {
   "CPU_Hours": 0.026666666666666665,
   "Mem_GB_Hours": 0.00003106858995225694,
   "GPU_Hours": 0,
   "Runtime": 0.0022222222222222222,
   "App_Hours": 0.026666666666666665,
   "JobId": "16507",
   "Queue": "q_x86_cn_sim_plus",
   "User": "amd_app",
   "JobName": "cubevnc",
   "Cluster": "aip",
   "CPU_Cost": 0.013333333333333332,
   "Mem_Cost": 0,
   "GPU_Cost": 0,
   "App_Cost": 0,
   "StartDate": "2020/11/13",
   "Project": "default"
  },
  {
   "CPU_Hours": 1.3688888888888888,
   "Mem_GB_Hours": 0.001886410183376736,
   "GPU_Hours": 0,
   "Runtime": 0.021388888888888888,
[...]
  },
  {
   "CPU_Hours": 8.951608167788889,
   "Mem_GB_Hours": 0.4151301768380945,
   "GPU_Hours": 0,
   "Runtime": 1.118951020973611,
   "App_Hours": 8.951608167788889,
   "JobId": "18368",
   "Queue": "q_x86_vio_share",
   "User": "amd_app",
   "App": "ICESimulator",
   "JobDescription": "fenglengjx9.10.801_1009",
   "JobName": "/home/export/online3/amd_share/anaconda/bin/python3 /home/export/online3/amd_app/wxy/cas2foam/generate.py q_x86_vio_share 8 100 1 20 /home/export/online3/amd_app/IcesimProject/fenglengjx9.10.801_1009 fenglengjx9.10.801_1009.cas",
   "Cluster": "aip",
   "CPU_Cost": 4.475804083894444,
   "Mem_Cost": 0,
   "GPU_Cost": 0,
   "App_Cost": 0,
   "StartDate": "2020/11/26",
   "Project": "default"
  },
  {
   "CPU_Hours": 0.0002777777777777778,
   "Mem_GB_Hours": 0.00000217437744140625,
   "GPU_Hours": 0,
   "Runtime": 0.0002777777777777778,
   "App_Hours": 0.0002777777777777778,
   "JobId": "16140",
   "Queue": "",
   "User": "amd_app",
   "App": "Hypermesh",
   "JobDescription": "Hypermesh",
   "Cluster": "aip",
   "CPU_Cost": 0.00008333333333333333,
   "Mem_Cost": 0,
   "GPU_Cost": 0,
   "App_Cost": 0,
   "StartDate": "2020/11/11"
  },
  {
   "CPU_Hours": 0.03777777777777778,
   "Mem_GB_Hours": 0.001091819339328342,
   "GPU_Hours": 0,
   "Runtime": 0.009444444444444445,
   "App_Hours": 0.03777777777777778,
   "JobId": "17235",
   "Queue": "q_x86_share",
   "User": "amd_app",
   "App": "ICESimulator",
   "JobName": "/home/export/online3/amd_share/anaconda/bin/python3 /home/export/online3/amd_app/wxy/cas2foam/generate.py q_x86_share 4 5 0.01 100 /home/export/online3/amd_app/wxy/openfoamtest/icepakcases/sanrecase/ sanre02.cas",
   "Cluster": "aip",
   "CPU_Cost": 0.01888888888888889,
   "Mem_Cost": 0,
   "GPU_Cost": 0,
   "App_Cost": 0,
   "StartDate": "2020/11/18",
   "Project": "default"
  },
  {
   "CPU_Hours": 4.0012893907425,
   "Mem_GB_Hours": 1.300861081663545,
   "GPU_Hours": 4.0012893907425,
   "Runtime": 4.0012893907425,
   "App_Hours": 4.0012893907425,
   "JobId": "18535",
   "Queue": "local",
   "User": "amd_app",
   "App": "FluentMeshing",
   "JobDescription": "FluentMeshing",
   "JobName": "cubevnc",
   "Cluster": "aip",
   "CPU_Cost": 2.00064469537125,
   "Mem_Cost": 0,
   "GPU_Cost": 2.00064469537125,
   "App_Cost": 0,
   "StartDate": "2020/11/27",
   "Project": "default"
  },
  {
   "CPU_Hours": 0.14342794293666666,
   "Mem_GB_Hours": 0.0068601507486505085,
   "GPU_Hours": 0,
   "Runtime": 0.011952328578055556,
   "App_Hours": 0.14342794293666666,
   "JobId": "16386",
   "Queue": "q_x86_cn_sim",
   "User": "amd_app",
   "JobName": "starccm-job",
   "Cluster": "aip",
   "CPU_Cost": 0.07171397146833333,
   "Mem_Cost": 0,
   "GPU_Cost": 0,
   "App_Cost": 0,
   "StartDate": "2020/11/12",
   "Project": "default"
  },
  {
   "CPU_Hours": 0.09333333333333334,
   "Mem_GB_Hours": 0.0012372334798177085,
   "GPU_Hours": 0,
   "Runtime": 0.023333333333333334,
   "App_Hours": 0.09333333333333334,
   "JobId": "18885",
   "Queue": "q_x86_vio_share",
   "User": "amd_app",
   "App": "ICESimulator",
   "JobDescription": "ss",
   "JobName": "/home/export/online3/amd_share/anaconda/bin/python3 /home/export/online3/amd_app/wxy/cas2foam/generate.py q_x86_vio_share 4 100 20 /home/export/online3/amd_app/IcesimProject/ss ss.cas",
   "Cluster": "aip",
   "CPU_Cost": 0.04666666666666667,
   "Mem_Cost": 0,
   "GPU_Cost": 0,
   "App_Cost": 0,
   "StartDate": "2020/11/30",
   "Project": "default"
  },
  {
   "CPU_Hours": 0,
   "Mem_GB_Hours": 0,
   "GPU_Hours": 0,
   "Runtime": 0,
   "App_Hours": 0,
   "JobId": "16981",
   "Queue": "q_x86_expr",
   "User": "amd_app",
   "JobName": "chtMultiRegionSimpleFoam -parallel",
   "Cluster": "aip",
   "CPU_Cost": 0,
   "Mem_Cost": 0,
   "GPU_Cost": 0,
   "App_Cost": 0,
   "StartDate": "2020/11/16",
   "Project": "default"
  },
  {
   "CPU_Hours": 0.76,
   "Mem_GB_Hours": 0.03650634765625,
   "GPU_Hours": 0,
   "Runtime": 0.095,
   "App_Hours": 0.76,
   "JobId": "18290",
   "Queue": "q_x86_share",
   "User": "amd_app",
   "App": "ICESimulator",
   "JobDescription": "ex11_noms",
   "JobName": "/home/export/online3/amd_share/anaconda/bin/python3 /home/export/online3/amd_app/wxy/cas2foam/generate.py q_x86_share 8 100 1 20 /home/export/online3/amd_app/IcesimProject/ex11_noms ex11_noms.cas",
   "Cluster": "aip",
   "CPU_Cost": 0.38,
   "Mem_Cost": 0,
   "GPU_Cost": 0,
   "App_Cost": 0,
   "StartDate": "2020/11/26",
   "Project": "default"
  },
  {
   "CPU_Hours": 17.42217558192027,
   "Mem_GB_Hours": 3.4713672181540183,
   "GPU_Hours": 17.42217558192027,
   "Runtime": 17.42217558192027,
   "App_Hours": 17.42217558192027,
   "JobId": "18338",
   "Queue": "local",
   "User": "amd_app",
   "App": "ICEPAK",
   "JobDescription": "ICEAPAK_test",
   "JobName": "cubevnc",
   "Cluster": "aip",
   "CPU_Cost": 8.711087790960136,
   "Mem_Cost": 0,
   "GPU_Cost": 8.711087790960136,
   "App_Cost": 0,
   "StartDate": "2020/11/26",
   "Project": "default"
  },
  {
   "CPU_Hours": 0.11972222222222222,
   "Mem_GB_Hours": 0.04595721350775824,
   "GPU_Hours": 0.11972222222222222,
   "Runtime": 0.11972222222222222,
   "App_Hours": 0.11972222222222222,
   "JobId": "18528",
   "Queue": "local",
   "User": "amd_app",
   "App": "CFX-pre",
   "JobDescription": "CFX-pre",
   "JobName": "cubevnc",
   "Cluster": "aip",
   "CPU_Cost": 0.05986111111111111,
   "Mem_Cost": 0,
   "GPU_Cost": 0.05986111111111111,
   "App_Cost": 0,
   "StartDate": "2020/11/27",
   "Project": "default"
  },
  {
   "CPU_Hours": 0.02666666666666667,
   "Mem_GB_Hours": 0.0001515960693359375,
   "GPU_Hours": 0,
   "Runtime": 0.006666666666666667,
   "App_Hours": 0.02666666666666667,
   "JobId": "17986",
   "Queue": "q_x86_share",
   "User": "amd_app",
   "App": "ICESimulator",
   "JobName": "/home/export/online3/amd_share/anaconda/bin/python3 /home/export/online3/amd_app/wxy/cas2foam/generate.py q_x86_share 4 5 0.01 100 /home/export/online3/amd_app/test100 test100.cas",
   "Cluster": "aip",
   "CPU_Cost": 0.013333333333333334,
   "Mem_Cost": 0,
   "GPU_Cost": 0,
   "App_Cost": 0,
   "StartDate": "2020/11/24",
   "Project": "default"
  },
  {
   "CPU_Hours": 0.03,
   "Mem_GB_Hours": 0.000023622512817382812,
   "GPU_Hours": 0,
   "Runtime": 0.0025,
   "App_Hours": 0.03,
   "JobId": "17526",
   "Queue": "q_x86_share",
   "User": "amd_app",
   "JobName": "fluent-job /home/export/base/nsccwuxi_amd/amd_app/online3/Zhouhl/Project/SimGO/Fluent/mixing_tank/mixing_tank.jou 3ddp",
   "Cluster": "aip",
   "CPU_Cost": 0.015,
   "Mem_Cost": 0,
   "GPU_Cost": 0,
   "App_Cost": 0,
   "StartDate": "2020/11/20",
   "Project": "default"
  },
  {
   "CPU_Hours": 0.20444444444444446,
   "Mem_GB_Hours": 0.002327007717556424,
   "GPU_Hours": 0,
   "Runtime": 0.025555555555555557,
   "App_Hours": 0.20444444444444446,
   "JobId": "18286",
   "Queue": "q_x86_share",
   "User": "amd_app",
   "App": "ICESimulator",
   "JobDescription": "jixiang_fan_test",
   "JobName": "/home/export/online3/amd_share/anaconda/bin/python3 /home/export/online3/amd_app/wxy/cas2foam/generate.py q_x86_share 8 100 1 20 /home/export/online3/amd_app/IcesimProject/jixiang_fan_test jixiang_fan_test.cas",
   "Cluster": "aip",
   "CPU_Cost": 0.10222222222222223,
   "Mem_Cost": 0,
   "GPU_Cost": 0,
   "App_Cost": 0,
   "StartDate": "2020/11/26",
   "Project": "default"
  },
  {
   "CPU_Hours": 0.0005555555555555556,
   "Mem_GB_Hours": 0.000003921720716688368,
   "GPU_Hours": 0,
   "Runtime": 0.0002777777777777778,
   "App_Hours": 0.0005555555555555556,
   "JobId": "16309",
   "Queue": "q_x86_share",
   "User": "amd_app",
   "App": "Abaqus",
   "JobDescription": "Batch-Abaqus",
   "JobName": "/home/export/online3/amd_share/shangruan/bin/abaqus614 /home/export/base/nsccwuxi_amd/amd_app/WORK/dzj/dzj/abaqustest/abaumat/riserdynamics_airy_disp.inp",
   "Cluster": "aip",
   "CPU_Cost": 0.0002777777777777778,
   "Mem_Cost": 0,
   "GPU_Cost": 0,
   "App_Cost": 0,
   "StartDate": "2020/11/12",
   "Project": "default"
  },
  {
   "CPU_Hours": 0.0011111111111111111,
   "Mem_GB_Hours": 0.00000675201416015625,
   "GPU_Hours": 0.0011111111111111111,
   "Runtime": 0.0011111111111111111,
   "App_Hours": 0.0011111111111111111,
   "JobId": "17058",
   "Queue": "local",
   "User": "amd_app",
   "App": "PointWise",
   "JobDescription": "PointWise",
   "JobName": "cubevnc",
   "Cluster": "aip",
   "CPU_Cost": 0.0005555555555555556,
   "Mem_Cost": 0,
   "GPU_Cost": 0.0005555555555555556,
   "App_Cost": 0,
   "StartDate": "2020/11/17",
   "Project": "default"
  },
  {
   "CPU_Hours": 0.5936341651561111,
   "Mem_GB_Hours": 0.34517559568499956,
   "GPU_Hours": 0.5936341651561111,
   "Runtime": 0.5936341651561111,
   "App_Hours": 0.5936341651561111,
   "JobId": "16143",
   "Queue": "local",
   "User": "amd_app",
   "JobName": "cubevnc",
   "Cluster": "aip",
   "CPU_Cost": 0.29681708257805556,
   "Mem_Cost": 0,
   "GPU_Cost": 0.29681708257805556,
   "App_Cost": 0,
   "StartDate": "2020/11/11",
   "Project": "default"
  },
  {
   "CPU_Hours": 0.01972222222222222,
   "Mem_GB_Hours": 0.006918321185641818,
   "GPU_Hours": 0.01972222222222222,
   "Runtime": 0.01972222222222222,
   "App_Hours": 0.01972222222222222,
   "JobId": "17251",
   "Queue": "local",
   "User": "amd_app",
   "App": "CFX-pre",
   "JobDescription": "CFX-pre",
   "JobName": "cubevnc",
   "Cluster": "aip",
   "CPU_Cost": 0.00986111111111111,
   "Mem_Cost": 0,
   "GPU_Cost": 0.00986111111111111,
   "App_Cost": 0,
   "StartDate": "2020/11/18",
   "Project": "default"
  },
  {
   "CPU_Hours": 0.1325,
   "Mem_GB_Hours": 0.0013640340169270833,
   "GPU_Hours": 0,
   "Runtime": 0.014722222222222222,
   "App_Hours": 0.1325,
   "JobId": "17517",
   "Queue": "q_x86_cn_sim",
   "User": "amd_app",
   "App": "Fluent",
   "JobDescription": "Fluent",
   "JobName": "cubevnc",
   "Cluster": "aip",
   "CPU_Cost": 0.06625,
   "Mem_Cost": 0,
   "GPU_Cost": 0,
   "App_Cost": 0,
   "StartDate": "2020/11/20",
   "Project": "default"
  },
  {
   "CPU_Hours": 0.020555555555555556,
   "Mem_GB_Hours": 0.00684790505303277,
   "GPU_Hours": 0.020555555555555556,
   "Runtime": 0.020555555555555556,
   "App_Hours": 0.020555555555555556,
   "JobId": "16030",
   "Queue": "local",
   "User": "amd_app",
   "App": "FluentMesh2020",
   "JobDescription": "FluentMesh2020",
   "JobName": "cubevnc",
   "Cluster": "aip",
   "CPU_Cost": 0.010277777777777778,
   "Mem_Cost": 0,
   "GPU_Cost": 0.010277777777777778,
   "App_Cost": 0,
   "StartDate": "2020/11/06",
   "Project": "default"
  },
  {
   "CPU_Hours": 0.005277777777777778,
   "Mem_GB_Hours": 0.001970912085639106,
   "GPU_Hours": 0.005277777777777778,
   "Runtime": 0.005277777777777778,
   "App_Hours": 0.005277777777777778,
   "JobId": "18467",
   "Queue": "local",
   "User": "amd_app",
   "App": "ParaView",
   "JobDescription": "ParaView",
   "JobName": "cubevnc",
   "Cluster": "aip",
   "CPU_Cost": 0.002638888888888889,
   "Mem_Cost": 0,
   "GPU_Cost": 0.002638888888888889,
   "App_Cost": 0,
   "StartDate": "2020/11/27",
   "Project": "default"
  },
  {
   "CPU_Hours": 3.983499626551111,
   "Mem_GB_Hours": 0.10923771571484402,
   "GPU_Hours": 0,
   "Runtime": 0.9958749066377778,
   "App_Hours": 3.983499626551111,
   "JobId": "15679",
   "Queue": "q_x86_expr",
   "User": "amd_app",
   "App": "Fluent",
   "JobDescription": "Fluent",
   "JobName": "cubevnc",
   "Cluster": "aip",
   "CPU_Cost": 1.9917498132755556,
   "Mem_Cost": 0,
   "GPU_Cost": 0,
   "App_Cost": 0,
   "StartDate": "2020/11/02",
   "Project": "default"
  },
  {
   "CPU_Hours": 0.13112172116861112,
   "Mem_GB_Hours": 0.0498463440444019,
   "GPU_Hours": 0.13112172116861112,
   "Runtime": 0.13112172116861112,
   "App_Hours": 0.13112172116861112,
   "JobId": "16754",
   "Queue": "local",
   "User": "amd_app",
   "App": "FluentMeshing",
   "JobDescription": "FluentMeshing",
   "JobName": "cubevnc",
   "Cluster": "aip",
   "CPU_Cost": 0.06556086058430556,
   "Mem_Cost": 0,
   "GPU_Cost": 0.06556086058430556,
   "App_Cost": 0,
   "StartDate": "2020/11/14",
   "Project": "default"
  },
  {
   "CPU_Hours": 0.33194444444444443,
   "Mem_GB_Hours": 0.05299633661905924,
   "GPU_Hours": 0,
   "Runtime": 0.06638888888888889,
   "App_Hours": 0.33194444444444443,
   "JobId": "18466",
   "Queue": "q_x86_share_plus",
   "User": "amd_app",
   "App": "StarCCM",
   "JobDescription": "StarCCM",
   "JobName": "cubevnc",
   "Cluster": "aip",
   "CPU_Cost": 0.16597222222222222,
   "Mem_Cost": 0,
   "GPU_Cost": 0,
   "App_Cost": 0,
   "StartDate": "2020/11/27",
   "Project": "default"
  },
  {
   "CPU_Hours": 0.5733333333333334,
   "Mem_GB_Hours": 0.00011263529459635417,
   "GPU_Hours": 0,
   "Runtime": 0.011944444444444445,
   "App_Hours": 0.5733333333333334,
   "JobId": "18408",
   "Queue": "q_x86_cn_sim",
   "User": "amd_app",
   "App": "StarCCM",
   "JobDescription": "Batch-StarCCM",
   "JobName": "/home/export/online3/amd_share/shangruan/bin/starccmyaml /home/export/base/nsccwuxi_amd/amd_app/WORK/Zhouhl/Project/SimGO/STARCCM/adjointWing_start_1206.sim",
   "Cluster": "aip",
   "CPU_Cost": 0.2866666666666667,
   "Mem_Cost": 0,
   "GPU_Cost": 0,
   "App_Cost": 0,
   "StartDate": "2020/11/26",
   "Project": "default"
  },
  {
   "CPU_Hours": 0.0016666666666666668,
   "Mem_GB_Hours": 0.000011768341064453127,
   "GPU_Hours": 0,
   "Runtime": 0.0008333333333333334,
   "App_Hours": 0.0016666666666666668,
   "JobId": "16200",
   "Queue": "q_x86_vio_share",
   "User": "amd_app",
   "JobDescription": "fluent_test",
   "JobName": "fluent_test",
   "Cluster": "aip",
   "CPU_Cost": 0.0008333333333333334,
   "Mem_Cost": 0,
   "GPU_Cost": 0,
   "App_Cost": 0,
   "StartDate": "2020/11/11",
   "Project": "default"
  },
  {
   "CPU_Hours": 0.3688888888888889,
   "Mem_GB_Hours": 0.008852163950602213,
   "GPU_Hours": 0,
   "Runtime": 0.04611111111111111,
   "App_Hours": 0.3688888888888889,
   "JobId": "18188",
   "Queue": "q_x86_share",
   "User": "amd_app",
   "App": "ICESimulator",
   "JobName": "/home/export/online3/amd_share/anaconda/bin/python3 /home/export/online3/amd_app/wxy/cas2foam/generate.py q_x86_share 8 100 1 20 /home/export/online3/amd_app/IcesimProject/pcb200 pcb200.cas",
   "Cluster": "aip",
   "CPU_Cost": 0.18444444444444444,
   "Mem_Cost": 0,
   "GPU_Cost": 0,
   "App_Cost": 0,
   "StartDate": "2020/11/25",
   "Project": "default"
  },
  {
   "CPU_Hours": 0.005277777777777778,
   "Mem_GB_Hours": 0.0017826673719618057,
   "GPU_Hours": 0.005277777777777778,
   "Runtime": 0.005277777777777778,
   "App_Hours": 0.005277777777777778,
   "JobId": "16311",
   "Queue": "local",
   "User": "amd_app",
   "App": "CFD-POST",
   "JobDescription": "CFD-POST",
   "JobName": "cubevnc",
   "Cluster": "aip",
   "CPU_Cost": 0.002638888888888889,
   "Mem_Cost": 0,
   "GPU_Cost": 0.002638888888888889,
   "App_Cost": 0,
   "StartDate": "2020/11/12",
   "Project": "default"
  },
  {
   "CPU_Hours": 0,
   "Mem_GB_Hours": 0,
   "GPU_Hours": 0,
   "Runtime": 0,
   "App_Hours": 0,
   "JobId": "17312",
   "Queue": "q_x86_expr",
   "User": "amd_app",
   "App": "CFX",
   "JobDescription": "Batch-CFX",
   "JobName": "/home/export/online3/amd_share/shangruan/bin/cfxyaml /home/export/base/nsccwuxi_amd/amd_app/WORK/Zhouhl/Project/SimGO/CFX/StaticMixer.def /home/export/base/nsccwuxi_amd/amd_app/WORK/Zhouhl/Project/SimGO/CFX/StaticMixer_2_001.res yes",
   "Cluster": "aip",
   "CPU_Cost": 0,
   "Mem_Cost": 0,
   "GPU_Cost": 0,
   "App_Cost": 0,
   "StartDate": "2020/11/19",
   "Project": "default"
  },
  {
   "CPU_Hours": 0.4888888888888889,
   "Mem_GB_Hours": 0.0006702211168077256,
   "GPU_Hours": 0,
   "Runtime": 0.06111111111111111,
   "App_Hours": 0.4888888888888889,
   "JobId": "18168",
   "Queue": "q_x86_share",
   "User": "amd_app",
   "App": "LS-DYNA",
   "JobDescription": "000_yaris_dynamic_roof_crush_01.k",
   "JobName": "/home/export/base/nsccwuxi_amd/amd_app/online3/dzj/dzj_online1/ls-dynatest/car01/000_yaris_dynamic_roof_crush_01.k",
   "Cluster": "aip",
   "CPU_Cost": 0.24444444444444444,
   "Mem_Cost": 0,
   "GPU_Cost": 0,
   "App_Cost": 0,
   "StartDate": "2020/11/25",
   "Project": "default"
  },
  {
   "CPU_Hours": 0.006666666666666667,
   "Mem_GB_Hours": 0.0015287780761718752,
   "GPU_Hours": 0.006666666666666667,
   "Runtime": 0.006666666666666667,
   "App_Hours": 0.006666666666666667,
   "JobId": "18348",
   "Queue": "local",
   "User": "amd_app",
   "App": "ICEM-CFD",
   "JobDescription": "ICEM-CFD",
   "JobName": "cubevnc",
   "Cluster": "aip",
   "CPU_Cost": 0.0033333333333333335,
   "Mem_Cost": 0,
   "GPU_Cost": 0.0033333333333333335,
   "App_Cost": 0,
   "StartDate": "2020/11/26",
   "Project": "default"
  },
  {
   "CPU_Hours": 0.09305555555555556,
   "Mem_GB_Hours": 0.022603628370496964,
   "GPU_Hours": 0.09305555555555556,
   "Runtime": 0.09305555555555556,
   "App_Hours": 0.09305555555555556,
   "JobId": "18341",
   "Queue": "local",
   "User": "amd_app",
   "App": "ICEPAK",
   "JobDescription": "ICEPAK",
   "JobName": "cubevnc",
   "Cluster": "aip",
   "CPU_Cost": 0.04652777777777778,
   "Mem_Cost": 0,
   "GPU_Cost": 0.04652777777777778,
   "App_Cost": 0,
   "StartDate": "2020/11/26",
   "Project": "default"
  },
  {
   "CPU_Hours": 0.023333333333333334,
   "Mem_GB_Hours": 0.00016471227010091146,
   "GPU_Hours": 0,
   "Runtime": 0.011666666666666667,
   "App_Hours": 0.023333333333333334,
   "JobId": "16535",
   "Queue": "q_x86_share",
   "User": "amd_app",
   "App": "Abaqus",
   "JobDescription": "Batch-Abaqus",
   "JobName": "/home/export/online3/amd_share/shangruan/bin/abaqus614 /home/export/base/nsccwuxi_amd/amd_app/WORK/dzj/dzj_online1/abaqustest/car2car/KX-CRH2-WHEEL-IMB-40.inp",
   "Cluster": "aip",
   "CPU_Cost": 0.011666666666666667,
   "Mem_Cost": 0,
   "GPU_Cost": 0,
   "App_Cost": 0,
   "StartDate": "2020/11/13",
   "Project": "default"
  },
  {
   "CPU_Hours": 0.34016135078666665,
   "Mem_GB_Hours": 0.019165200931408437,
   "GPU_Hours": 0,
   "Runtime": 0.028346779232222223,
   "App_Hours": 0.34016135078666665,
   "JobId": "16396",
   "Queue": "q_x86_cn_sim",
   "User": "amd_app",
   "JobName": "cubevnc",
   "Cluster": "aip",
   "CPU_Cost": 0.17008067539333332,
   "Mem_Cost": 0,
   "GPU_Cost": 0,
   "App_Cost": 0,
   "StartDate": "2020/11/12",
   "Project": "default"
  },
  {
   "CPU_Hours": 0.8900955711799999,
   "Mem_GB_Hours": 0.00037186937550131476,
   "GPU_Hours": 0,
   "Runtime": 0.07417463093166667,
   "App_Hours": 0.8900955711799999,
   "JobId": "17536",
   "Queue": "q_x86_share",
   "User": "amd_app",
   "JobName": "fluent-job /home/export/base/nsccwuxi_amd/amd_app/online3/Zhouhl/Project/SimGO/Fluent/mixing_tank/mixing_tank.jou 3ddp",
   "Cluster": "aip",
   "CPU_Cost": 0.44504778558999997,
   "Mem_Cost": 0,
   "GPU_Cost": 0,
   "App_Cost": 0,
   "StartDate": "2020/11/20",
   "Project": "default"
  },
  {
   "CPU_Hours": 0.09555555555555556,
   "Mem_GB_Hours": 0.003418426513671875,
   "GPU_Hours": 0,
   "Runtime": 0.02388888888888889,
   "App_Hours": 0.09555555555555556,
   "JobId": "17873",
   "Queue": "q_x86_share",
   "User": "amd_app",
   "App": "ICESimulator",
   "JobName": "/home/export/online3/amd_share/anaconda/bin/python3 /home/export/online3/amd_app/wxy/cas2foam/generate.py q_x86_share 4 5 0.1 10 /home/export/online3/amd_app/IcepakProj00 IcepakProj00.cas",
   "Cluster": "aip",
   "CPU_Cost": 0.04777777777777778,
   "Mem_Cost": 0,
   "GPU_Cost": 0,
   "App_Cost": 0,
   "StartDate": "2020/11/23",
   "Project": "default"
  },
  {
   "CPU_Hours": 0.015555555555555555,
   "Mem_GB_Hours": 0.00877154032389323,
   "GPU_Hours": 0.015555555555555555,
   "Runtime": 0.015555555555555555,
   "App_Hours": 0.015555555555555555,
   "JobId": "16728",
   "Queue": "local",
   "User": "amd_app",
   "App": "FluentMesh2020",
   "JobDescription": "FluentMesh2020",
   "JobName": "cubevnc",
   "Cluster": "aip",
   "CPU_Cost": 0.0077777777777777776,
   "Mem_Cost": 0,
   "GPU_Cost": 0.0077777777777777776,
   "App_Cost": 0,
   "StartDate": "2020/11/14",
   "Project": "default"
  }
 ]
}