{
 "User": "amd_app",
 "Queues": "all",
 "Clusters": [
  "aip"
 ],
 "Month": "2020-12",
 "CPU_Hours": 7339.117144349819,
 "Mem_GB_Hours": 1791.216955874932,
 "GPU_Hours": 637.5278344559591,
 "App_Cost": 0,
 "CPU_Cost": 3669.5585721749094,
 "Mem_Cost": 0,
 "GPU_Cost": 318.76391722797956,
 "Total_Cost": 8101.567719457687,
 "App_Hours": {
  "Abaqus": {
   "Hours": 32.09535461105471,
   "Cost": 0
  },
  "Abaqus614": {
   "Hours": 23.17946277633222,
   "Cost": 0
  },
  "AnsysAPDL": {
   "Hours": 79.08825422997778,
   "Cost": 0
  },
  "CFD-POST": {
   "Hours": 0.020555555555555556,
   "Cost": 0
  },
  "CFX": {
   "Hours": 1.7469010078333334,
   "Cost": 0
  },
  "CFX-pre": {
   "Hours": 4.062896033028333,
   "Cost": 0
  },
  "CFX-pre2020": {
   "Hours": 47.941145705586386,
   "Cost": 0
  },
  "CFX2020": {
   "Hours": 81.29003985639334,
   "Cost": 0
  },
  "Fluent": {
   "Hours": 5401.7306828687115,
   "Cost": 0
  },
  "Fluent2020": {
   "Hours": 1.31,
   "Cost": 0
  },
  "FluentMesh2020": {
   "Hours": 0.2622330456577778,
   "Cost": 0
  },
  "FluentMeshing": {
   "Hours": 4.023729366361666,
   "Cost": 0
  },
  "Hypermesh": {
   "Hours": 14.424264059295835,
   "Cost": 0
  },
  "ICEM-CFD": {
   "Hours": 5.951305695564445,
   "Cost": 0
  },
  "ICEPAK": {
   "Hours": 115.15224211318086,
   "Cost": 0
  },
  "ICESIM": {
   "Hours": 993.6765609303865,
   "Cost": 0
  },
  "ICESimulator": {
   "Hours": 27.06018484319611,
   "Cost": 0
  },
  "LS-DYNA": {
   "Hours": 0.18666666666666665,
   "Cost": 0
  },
  "ParaView": {
   "Hours": 261.32432812934815,
   "Cost": 0
  },
  "PointWise": {
   "Hours": 109.2348899641536,
   "Cost": 0
  },
  "SC_Batch1404": {
   "Hours": 0.1269476477738889,
   "Cost": 0
  },
  "SWOF": {
   "Hours": 0.051944444444444446,
   "Cost": 0
  },
  "StarCCM": {
   "Hours": 32.28940445652056,
   "Cost": 0
  },
  "StarCCM1404": {
   "Hours": 21.879975033806115,
   "Cost": 0
  },
  "TankSim": {
   "Hours": 20.832094067506382,
   "Cost": 0
  },
  "电子散热APP": {
   "Hours": 60.175081241486986,
   "Cost": 0
  }
 },
 "Details": [
  {
   "CPU_Hours": 97.63068884545332,
   "Mem_GB_Hours": 0.7777516299747081,
   "GPU_Hours": 0,
   "Runtime": 6.1019180528408326,
   "App_Hours": 97.63068884545332,
   "JobId": "21146",
   "Queue": "q_x86_share",
   "User": "amd_app",
   "App": "ICESIM",
   "JobDescription": "ICESIM-fenglengjx9.10.801_1009",
   "JobName": "/home/export/online3/amd_share/anaconda/bin/python3 /home/export/online3/amd_app/wxy/cas2foam/generate.py q_x86_share 16 100 20 /home/export/online3/amd_app/IcesimProject/fenglengjx9.10.801_1009 fenglengjx9.10.801_1009.cas",
   "Cluster": "aip",
   "CPU_Cost": 48.81534442272666,
   "Mem_Cost": 0,
   "GPU_Cost": 0,
   "App_Cost": 0,
   "StartDate": "2020/12/16",
   "Project": "default"
  },
  {
   "CPU_Hours": 0.049166666666666664,
   "Mem_GB_Hours": 0.0176092529296875,
   "GPU_Hours": 0.049166666666666664,
   "Runtime": 0.049166666666666664,
   "App_Hours": 0.049166666666666664,
   "JobId": "19181",
   "Queue": "local",
   "User": "amd_app",
   "App": "ParaView",
   "JobDescription": "123",
   "JobName": "cubevnc",
   "Cluster": "aip",
   "CPU_Cost": 0.024583333333333332,
   "Mem_Cost": 0,
   "GPU_Cost": 0.024583333333333332,
   "App_Cost": 0,
   "StartDate": "2020/12/02",
   "Project": "default"
  },
  {
   "CPU_Hours": 0.6103098763702778,
   "Mem_GB_Hours": 0.18544768388346922,
   "GPU_Hours": 0,
   "Runtime": 0.6103098763702778,
   "App_Hours": 0.6103098763702778,
   "JobId": "23049",
   "Queue": "local",
   "User": "amd_app",
   "App": "ICESIM",
   "JobDescription": "ICESIM",
   "JobName": "cubevnc",
   "Cluster": "aip",
   "CPU_Cost": 0.3051549381851389,
   "Mem_Cost": 0,
   "GPU_Cost": 0,
   "App_Cost": 0,
   "StartDate": "2020/12/25",
   "Project": "default"
  },
  {
   "CPU_Hours": 0.9367054269422221,
   "Mem_GB_Hours": 0.4740675222951254,
   "GPU_Hours": 0.9367054269422221,
   "Runtime": 0.9367054269422221,
   "App_Hours": 0.9367054269422221,
   "JobId": "22231",
   "Queue": "local",
   "User": "amd_app",
   "App": "PointWise",
   "JobDescription": "PointWise",
   "JobName": "cubevnc",
   "Cluster": "aip",
   "CPU_Cost": 0.46835271347111107,
   "Mem_Cost": 0,
   "GPU_Cost": 0.46835271347111107,
   "App_Cost": 0,
   "StartDate": "2020/12/21",
   "Project": "default"
  },
  {
   "CPU_Hours": 8.001916962711114,
   "Mem_GB_Hours": 4.549996173246781,
   "GPU_Hours": 8.001916962711114,
   "Runtime": 8.001916962711114,
   "App_Hours": 8.001916962711114,
   "JobId": "22416",
   "Queue": "local",
   "User": "amd_app",
   "App": "ParaView",
   "JobDescription": "ParaView",
   "JobName": "cubevnc",
   "Cluster": "aip",
   "CPU_Cost": 4.000958481355557,
   "Mem_Cost": 0,
   "GPU_Cost": 4.000958481355557,
   "App_Cost": 0,
   "StartDate": "2020/12/22",
   "Project": "default"
  },
  {
   "CPU_Hours": 0.28,
   "Mem_GB_Hours": 0.0010040283203125002,
   "GPU_Hours": 0,
   "Runtime": 0.07,
   "App_Hours": 0.28,
   "JobId": "20346",
   "Queue": "q_x86_share",
   "User": "amd_app",
   "App": "ICESIM",
   "JobDescription": "ICESIM-ss",
   "JobName": "/home/export/online3/amd_share/anaconda/bin/python3 /home/export/online3/amd_app/wxy/cas2foam/generate.py q_x86_share 4 100 20 /home/export/online3/amd_app/IcesimProject/ss ss.cas",
   "Cluster": "aip",
   "CPU_Cost": 0.14,
   "Mem_Cost": 0,
   "GPU_Cost": 0,
   "App_Cost": 0,
   "StartDate": "2020/12/10",
   "Project": "default"
  },
  {
   "CPU_Hours": 0.12222222222222222,
   "Mem_GB_Hours": 0.00324806637234158,
   "GPU_Hours": 0,
   "Runtime": 0.06111111111111111,
   "App_Hours": 0.12222222222222222,
   "JobId": "21376",
   "Queue": "q_x86_share",
   "User": "amd_app",
   "App": "ICESIM",
   "JobDescription": "ICESIM-test3",
   "JobName": "/home/export/online3/amd_share/anaconda/bin/python3 /home/export/online3/amd_app/wxy/cas2foam/generate.py q_x86_share 2 100 20 /home/export/base/nsccwuxi_amd/amd_app/online3/IcesimProject/test3 ss.cas",
   "Cluster": "aip",
   "CPU_Cost": 0.06111111111111111,
   "Mem_Cost": 0,
   "GPU_Cost": 0,
   "App_Cost": 0,
   "StartDate": "2020/12/17",
   "Project": "default"
  },
  {
   "CPU_Hours": 0.004166666666666667,
   "Mem_GB_Hours": 0.0012095451354980468,
   "GPU_Hours": 0,
   "Runtime": 0.004166666666666667,
   "App_Hours": 0.004166666666666667,
   "JobId": "23048",
   "Queue": "local",
   "User": "amd_app",
   "App": "ICESIM",
   "JobDescription": "ICESIM",
   "JobName": "cubevnc",
   "Cluster": "aip",
   "CPU_Cost": 0.0020833333333333333,
   "Mem_Cost": 0,
   "GPU_Cost": 0,
   "App_Cost": 0,
   "StartDate": "2020/12/25",
   "Project": "default"
  },
  {
   "CPU_Hours": 97.21264763391999,
   "Mem_GB_Hours": 1.5374103706909088,
   "GPU_Hours": 0,
   "Runtime": 6.075790477119999,
   "App_Hours": 97.21264763391999,
   "JobId": "20983",
   "Queue": "q_x86_share",
   "User": "amd_app",
   "App": "ICESIM",
   "JobDescription": "ICESIM-fenglengjx9.10.801_1009",
   "JobName": "/home/export/online3/amd_share/anaconda/bin/python3 /home/export/online3/amd_app/wxy/cas2foam/generate.py q_x86_share 16 100 20 /home/export/online3/amd_app/IcesimProject/fenglengjx9.10.801_1009 fenglengjx9.10.801_1009.cas",
   "Cluster": "aip",
   "CPU_Cost": 48.60632381695999,
   "Mem_Cost": 0,
   "GPU_Cost": 0,
   "App_Cost": 0,
   "StartDate": "2020/12/15",
   "Project": "default"
  },
  {
   "CPU_Hours": 0,
   "Mem_GB_Hours": 0,
   "GPU_Hours": 0,
   "Runtime": 0,
   "App_Hours": 0,
   "JobId": "19283",
   "Queue": "local",
   "User": "amd_app",
   "App": "电子散热APP",
   "JobDescription": "电子散热APP",
   "JobName": "cubevnc",
   "Cluster": "aip",
   "CPU_Cost": 0,
   "Mem_Cost": 0,
   "GPU_Cost": 0,
   "App_Cost": 0,
   "StartDate": "2020/12/03",
   "Project": "default"
  },
  {
   "CPU_Hours": 0.06555555555555556,
   "Mem_GB_Hours": 0.0009505335489908855,
   "GPU_Hours": 0,
   "Runtime": 0.01638888888888889,
   "App_Hours": 0.06555555555555556,
   "JobId": "22763",
   "Queue": "q_x86_share",
   "User": "amd_app",
   "App": "ICESIM",
   "JobDescription": "ICESIM/ss-1",
   "JobName": "/home/export/online3/amd_share/anaconda/bin/python3 /home/export/online3/amd_app/wxy/cas2foam/generate.py q_x86_share 4 10 2 /home/export/online3/amd_app/IcesimProject/ss-1 ss.cas",
   "Cluster": "aip",
   "CPU_Cost": 0.03277777777777778,
   "Mem_Cost": 0,
   "GPU_Cost": 0,
   "App_Cost": 0,
   "StartDate": "2020/12/24",
   "Project": "default"
  },
  {
   "CPU_Hours": 0.09583333333333334,
   "Mem_GB_Hours": 0.03186426162719727,
   "GPU_Hours": 0,
   "Runtime": 0.09583333333333334,
   "App_Hours": 0.09583333333333334,
   "JobId": "20639",
   "Queue": "local",
   "User": "amd_app",
   "App": "ICESIM",
   "JobDescription": "ICESIM",
   "JobName": "cubevnc",
   "Cluster": "aip",
   "CPU_Cost": 0.04791666666666667,
   "Mem_Cost": 0,
   "GPU_Cost": 0,
   "App_Cost": 0,
   "StartDate": "2020/12/12",
   "Project": "default"
  },
  {
   "CPU_Hours": 0.0005555555555555556,
   "Mem_GB_Hours": 0.000003543429904513889,
   "GPU_Hours": 0,
   "Runtime": 0.0002777777777777778,
   "App_Hours": 0.0005555555555555556,
   "JobId": "21204",
   "Queue": "q_x86_share",
   "User": "amd_app",
   "App": "ICESIM",
   "JobDescription": "ICESIM-ss",
   "JobName": "/home/export/online3/amd_share/anaconda/bin/python3 /home/export/online3/amd_app/wxy/cas2foam/generate.py q_x86_share 2 100 20 /home/export/online3/amd_app/IcesimProject/ss-1 ss.cas",
   "Cluster": "aip",
   "CPU_Cost": 0.0002777777777777778,
   "Mem_Cost": 0,
   "GPU_Cost": 0,
   "App_Cost": 0,
   "StartDate": "2020/12/16",
   "Project": "default"
  },
  {
   "CPU_Hours": 0.11333333333333333,
   "Mem_GB_Hours": 0.39702247619628905,
   "GPU_Hours": 0,
   "Runtime": 0.11333333333333333,
   "App_Hours": 0.11333333333333333,
   "JobId": "21208",
   "Queue": "local",
   "User": "amd_app",
   "App": "ICESIM",
   "JobDescription": "ICESIM",
   "JobName": "cubevnc",
   "Cluster": "aip",
   "CPU_Cost": 0.056666666666666664,
   "Mem_Cost": 0,
   "GPU_Cost": 0,
   "App_Cost": 0,
   "StartDate": "2020/12/16",
   "Project": "default"
  },
  {
   "CPU_Hours": 71.86482710122665,
   "Mem_GB_Hours": 1.1643654844902434,
   "GPU_Hours": 0,
   "Runtime": 4.491551693826666,
   "App_Hours": 71.86482710122665,
   "JobId": "22598",
   "Queue": "q_x86_share",
   "User": "amd_app",
   "App": "ICESIM",
   "JobDescription": "ICESIM/fenglengjixinag-3",
   "JobName": "/home/export/online3/amd_share/anaconda/bin/python3 /home/export/online3/amd_app/wxy/cas2foam/generate.py q_x86_share 16 2000 20 /home/export/base/nsccwuxi_amd/amd_app/online3/Zhouhl/Project/ElecThermSim/OF_test/fenglengjixinag-3 fenglengjx9.10.801_1009.cas",
   "Cluster": "aip",
   "CPU_Cost": 35.932413550613326,
   "Mem_Cost": 0,
   "GPU_Cost": 0,
   "App_Cost": 0,
   "StartDate": "2020/12/23",
   "Project": "default"
  },
  {
   "CPU_Hours": 1.0431051533205555,
   "Mem_GB_Hours": 0.2513212903299427,
   "GPU_Hours": 0,
   "Runtime": 1.0431051533205555,
   "App_Hours": 1.0431051533205555,
   "JobId": "24327",
   "Queue": "local",
   "User": "amd_app",
   "App": "ICESIM",
   "JobDescription": "ICESIM",
   "JobName": "cubevnc",
   "Cluster": "aip",
   "CPU_Cost": 0.5215525766602778,
   "Mem_Cost": 0,
   "GPU_Cost": 0,
   "App_Cost": 0,
   "StartDate": "2020/12/31",
   "Project": "default"
  },
  {
   "CPU_Hours": 0.01138888888888889,
   "Mem_GB_Hours": 0.03028757837083605,
   "GPU_Hours": 0,
   "Runtime": 0.01138888888888889,
   "App_Hours": 0.01138888888888889,
   "JobId": "23809",
   "Queue": "local",
   "User": "amd_app",
   "App": "ICESIM",
   "JobDescription": "ICESIM",
   "JobName": "cubevnc",
   "Cluster": "aip",
   "CPU_Cost": 0.005694444444444445,
   "Mem_Cost": 0,
   "GPU_Cost": 0,
   "App_Cost": 0,
   "StartDate": "2020/12/29",
   "Project": "default"
  },
  {
   "CPU_Hours": 0.20305555555555554,
   "Mem_GB_Hours": 0.8142803223927816,
   "GPU_Hours": 0,
   "Runtime": 0.20305555555555554,
   "App_Hours": 0.20305555555555554,
   "JobId": "22762",
   "Queue": "local",
   "User": "amd_app",
   "App": "ICESIM",
   "JobDescription": "ICESIM",
   "JobName": "cubevnc",
   "Cluster": "aip",
   "CPU_Cost": 0.10152777777777777,
   "Mem_Cost": 0,
   "GPU_Cost": 0,
   "App_Cost": 0,
   "StartDate": "2020/12/24",
   "Project": "default"
  },
  {
   "CPU_Hours": 0.03611911664277778,
   "Mem_GB_Hours": 0.0003648506960680983,
   "GPU_Hours": 0,
   "Runtime": 0.03611911664277778,
   "App_Hours": 0.03611911664277778,
   "JobId": "19761",
   "Queue": "local",
   "User": "amd_app",
   "App": "电子散热APP",
   "JobDescription": "电子散热APP",
   "JobName": "cubevnc",
   "Cluster": "aip",
   "CPU_Cost": 0.01805955832138889,
   "Mem_Cost": 0,
   "GPU_Cost": 0,
   "App_Cost": 0,
   "StartDate": "2020/12/07",
   "Project": "default"
  },
  {
   "CPU_Hours": 8.05284534098,
   "Mem_GB_Hours": 1.8137000607700005,
   "GPU_Hours": 0,
   "Runtime": 8.05284534098,
   "App_Hours": 8.05284534098,
   "JobId": "24353",
   "Queue": "local",
   "User": "amd_app",
   "App": "ICESIM",
   "JobDescription": "ICESIM",
   "JobName": "cubevnc",
   "Cluster": "aip",
   "CPU_Cost": 4.02642267049,
   "Mem_Cost": 0,
   "GPU_Cost": 0,
   "App_Cost": 0,
   "StartDate": "2020/12/31",
   "Project": "default"
  },
  {
   "CPU_Hours": 0.045,
   "Mem_GB_Hours": 0.014046363830566407,
   "GPU_Hours": 0,
   "Runtime": 0.045,
   "App_Hours": 0.045,
   "JobId": "21793",
   "Queue": "local",
   "User": "amd_app",
   "App": "ICESIM",
   "JobDescription": "ICESIM",
   "JobName": "cubevnc",
   "Cluster": "aip",
   "CPU_Cost": 0.0225,
   "Mem_Cost": 0,
   "GPU_Cost": 0,
   "App_Cost": 0,
   "StartDate": "2020/12/18",
   "Project": "default"
  },
  {
   "CPU_Hours": 0.2816856810080556,
   "Mem_GB_Hours": 0.08429328189321142,
   "GPU_Hours": 0,
   "Runtime": 0.2816856810080556,
   "App_Hours": 0.2816856810080556,
   "JobId": "22587",
   "Queue": "local",
   "User": "amd_app",
   "App": "ICESIM",
   "JobDescription": "ICESIM",
   "JobName": "cubevnc",
   "Cluster": "aip",
   "CPU_Cost": 0.1408428405040278,
   "Mem_Cost": 0,
   "GPU_Cost": 0,
   "App_Cost": 0,
   "StartDate": "2020/12/23",
   "Project": "default"
  },
  {
   "CPU_Hours": 0.10305555555555555,
   "Mem_GB_Hours": 0.09125667254130046,
   "GPU_Hours": 0,
   "Runtime": 0.10305555555555555,
   "App_Hours": 0.10305555555555555,
   "JobId": "22245",
   "Queue": "local",
   "User": "amd_app",
   "App": "ICESIM",
   "JobDescription": "ICESIM",
   "JobName": "cubevnc",
   "Cluster": "aip",
   "CPU_Cost": 0.051527777777777777,
   "Mem_Cost": 0,
   "GPU_Cost": 0,
   "App_Cost": 0,
   "StartDate": "2020/12/21",
   "Project": "default"
  },
  {
   "CPU_Hours": 0.0044444444444444444,
   "Mem_GB_Hours": 0.000003581576877170139,
   "GPU_Hours": 0,
   "Runtime": 0.0002777777777777778,
   "App_Hours": 0.0044444444444444444,
   "JobId": "22155",
   "Queue": "q_x86_share",
   "User": "amd_app",
   "App": "Abaqus",
   "JobDescription": "Job-095355-Model-1",
   "JobName": "Job-095355",
   "Cluster": "aip",
   "CPU_Cost": 0.0022222222222222222,
   "Mem_Cost": 0,
   "GPU_Cost": 0,
   "App_Cost": 0,
   "StartDate": "2020/12/21",
   "Project": "default"
  },
  {
   "CPU_Hours": 0.09028214396416667,
   "Mem_GB_Hours": 0.0005677848054817137,
   "GPU_Hours": 0,
   "Runtime": 0.09028214396416667,
   "App_Hours": 0.09028214396416667,
   "JobId": "19301",
   "Queue": "local",
   "User": "amd_app",
   "App": "电子散热APP",
   "JobDescription": "电子散热APP",
   "JobName": "cubevnc",
   "Cluster": "aip",
   "CPU_Cost": 0.045141071982083336,
   "Mem_Cost": 0,
   "GPU_Cost": 0,
   "App_Cost": 0,
   "StartDate": "2020/12/03",
   "Project": "default"
  },
  {
   "CPU_Hours": 0.028888888888888888,
   "Mem_GB_Hours": 0.0007675594753689236,
   "GPU_Hours": 0,
   "Runtime": 0.014444444444444444,
   "App_Hours": 0.028888888888888888,
   "JobId": "22581",
   "Queue": "q_x86_share",
   "User": "amd_app",
   "App": "ICESIM",
   "JobDescription": "ICESIM/ss-10",
   "JobName": "/home/export/online3/amd_share/anaconda/bin/python3 /home/export/online3/amd_app/wxy/cas2foam/generate.py q_x86_share 2 10 1 /home/export/online3/amd_app/IcesimProject/ss-10 ss.cas",
   "Cluster": "aip",
   "CPU_Cost": 0.014444444444444444,
   "Mem_Cost": 0,
   "GPU_Cost": 0,
   "App_Cost": 0,
   "StartDate": "2020/12/23",
   "Project": "default"
  },
  {
   "CPU_Hours": 0.13778777901027778,
   "Mem_GB_Hours": 0.03925162197467929,
   "GPU_Hours": 0.13778777901027778,
   "Runtime": 0.13778777901027778,
   "App_Hours": 0.13778777901027778,
   "JobId": "22233",
   "Queue": "local",
   "User": "amd_app",
   "App": "ICEM-CFD",
   "JobDescription": "ICEM-CFD",
   "JobName": "cubevnc",
   "Cluster": "aip",
   "CPU_Cost": 0.06889388950513889,
   "Mem_Cost": 0,
   "GPU_Cost": 0.06889388950513889,
   "App_Cost": 0,
   "StartDate": "2020/12/21",
   "Project": "default"
  },
  {
   "CPU_Hours": 0.37278201021944446,
   "Mem_GB_Hours": 0.0025892664290409406,
   "GPU_Hours": 0,
   "Runtime": 0.37278201021944446,
   "App_Hours": 0.37278201021944446,
   "JobId": "19297",
   "Queue": "local",
   "User": "amd_app",
   "App": "电子散热APP",
   "JobDescription": "电子散热APP",
   "JobName": "cubevnc",
   "Cluster": "aip",
   "CPU_Cost": 0.18639100510972223,
   "Mem_Cost": 0,
   "GPU_Cost": 0,
   "App_Cost": 0,
   "StartDate": "2020/12/03",
   "Project": "default"
  },
  {
   "CPU_Hours": 65.65774430935164,
   "Mem_GB_Hours": 9.154637735379731,
   "GPU_Hours": 0,
   "Runtime": 65.65774430935164,
   "App_Hours": 65.65774430935164,
   "JobId": "23397",
   "Queue": "q_x86_share",
   "User": "amd_app",
   "App": "Fluent",
   "JobDescription": "Fluent",
   "JobName": "cubevnc",
   "Cluster": "aip",
   "CPU_Cost": 32.82887215467582,
   "Mem_Cost": 0,
   "GPU_Cost": 0,
   "App_Cost": 0,
   "StartDate": "2020/12/27",
   "Project": "default"
  },
  {
   "CPU_Hours": 0.0011111111111111111,
   "Mem_GB_Hours": 0.000003680123223198785,
   "GPU_Hours": 0,
   "Runtime": 0.0002777777777777778,
   "App_Hours": 0.0011111111111111111,
   "JobId": "22771",
   "Queue": "q_x86_share",
   "User": "amd_app",
   "App": "ICESIM",
   "JobDescription": "ICESIM/RF",
   "JobName": "/home/export/online3/amd_share/anaconda/bin/python3 /home/export/online3/amd_app/wxy/cas2foam/generate.py q_x86_share 4 2000 20 /home/export/base/nsccwuxi_amd/amd_app/online3/wxy/ICEPAK_MODEL/OF_test/RF RF100.cas",
   "Cluster": "aip",
   "CPU_Cost": 0.0005555555555555556,
   "Mem_Cost": 0,
   "GPU_Cost": 0,
   "App_Cost": 0,
   "StartDate": "2020/12/24",
   "Project": "default"
  },
  {
   "CPU_Hours": 0.003611111111111111,
   "Mem_GB_Hours": 0.00003643565707736545,
   "GPU_Hours": 0,
   "Runtime": 0.003611111111111111,
   "App_Hours": 0.003611111111111111,
   "JobId": "19776",
   "Queue": "local",
   "User": "amd_app",
   "App": "电子散热APP",
   "JobDescription": "电子散热APP",
   "JobName": "cubevnc",
   "Cluster": "aip",
   "CPU_Cost": 0.0018055555555555555,
   "Mem_Cost": 0,
   "GPU_Cost": 0,
   "App_Cost": 0,
   "StartDate": "2020/12/07",
   "Project": "default"
  },
  {
   "CPU_Hours": 0.0011111111111111111,
   "Mem_GB_Hours": 0.000007214016384548611,
   "GPU_Hours": 0,
   "Runtime": 0.0005555555555555556,
   "App_Hours": 0.0011111111111111111,
   "JobId": "22236",
   "Queue": "q_x86_share",
   "User": "amd_app",
   "App": "ICESIM",
   "JobDescription": "ICESIM/pcb200-1-1",
   "JobName": "/home/export/online3/amd_share/anaconda/bin/python3 /home/export/online3/amd_app/wxy/cas2foam/generate.py q_x86_share 2 100 20 /home/export/online3/amd_app/IcesimProject/pcb200-1-1 pcb200.cas",
   "Cluster": "aip",
   "CPU_Cost": 0.0005555555555555556,
   "Mem_Cost": 0,
   "GPU_Cost": 0,
   "App_Cost": 0,
   "StartDate": "2020/12/21",
   "Project": "default"
  },
  {
   "CPU_Hours": 0.0011111111111111111,
   "Mem_GB_Hours": 0.000003619723849826389,
   "GPU_Hours": 0,
   "Runtime": 0.0002777777777777778,
   "App_Hours": 0.0011111111111111111,
   "JobId": "22443",
   "Queue": "q_x86_share",
   "User": "amd_app",
   "App": "ICESIM",
   "JobDescription": "ICESIM/test",
   "JobName": "/home/export/online3/amd_share/anaconda/bin/python3 /home/export/online3/amd_app/wxy/cas2foam/generate.py q_x86_share 4 300 20 /home/export/base/nsccwuxi_amd/amd_app/online3/IcesimProject/test ss.cas",
   "Cluster": "aip",
   "CPU_Cost": 0.0005555555555555556,
   "Mem_Cost": 0,
   "GPU_Cost": 0,
   "App_Cost": 0,
   "StartDate": "2020/12/22",
   "Project": "default"
  },
  {
   "CPU_Hours": 0.029444444444444443,
   "Mem_GB_Hours": 0.0007823763953314887,
   "GPU_Hours": 0,
   "Runtime": 0.014722222222222222,
   "App_Hours": 0.029444444444444443,
   "JobId": "22505",
   "Queue": "q_x86_share",
   "User": "amd_app",
   "App": "ICESIM",
   "JobDescription": "ICESIM/ss-6",
   "JobName": "/home/export/online3/amd_share/anaconda/bin/python3 /home/export/online3/amd_app/wxy/cas2foam/generate.py q_x86_share 2 10 1 /home/export/online3/amd_app/IcesimProject/ss-6 ss.cas",
   "Cluster": "aip",
   "CPU_Cost": 0.014722222222222222,
   "Mem_Cost": 0,
   "GPU_Cost": 0,
   "App_Cost": 0,
   "StartDate": "2020/12/22",
   "Project": "default"
  },
  {
   "CPU_Hours": 0.09027777777777778,
   "Mem_GB_Hours": 0.027077065573798284,
   "GPU_Hours": 0,
   "Runtime": 0.09027777777777778,
   "App_Hours": 0.09027777777777778,
   "JobId": "22770",
   "Queue": "local",
   "User": "amd_app",
   "App": "ICESIM",
   "JobDescription": "ICESIM",
   "JobName": "cubevnc",
   "Cluster": "aip",
   "CPU_Cost": 0.04513888888888889,
   "Mem_Cost": 0,
   "GPU_Cost": 0,
   "App_Cost": 0,
   "StartDate": "2020/12/24",
   "Project": "default"
  },
  {
   "CPU_Hours": 1.1381045260541667,
   "Mem_GB_Hours": 4.289253337702251,
   "GPU_Hours": 0,
   "Runtime": 1.1381045260541667,
   "App_Hours": 1.1381045260541667,
   "JobId": "20831",
   "Queue": "local",
   "User": "amd_app",
   "App": "ICESIM",
   "JobDescription": "ICESIM",
   "JobName": "cubevnc",
   "Cluster": "aip",
   "CPU_Cost": 0.5690522630270833,
   "Mem_Cost": 0,
   "GPU_Cost": 0,
   "App_Cost": 0,
   "StartDate": "2020/12/14",
   "Project": "default"
  },
  {
   "CPU_Hours": 0.9311506065608334,
   "Mem_GB_Hours": 3.7282158493810234,
   "GPU_Hours": 0,
   "Runtime": 0.9311506065608334,
   "App_Hours": 0.9311506065608334,
   "JobId": "21302",
   "Queue": "local",
   "User": "amd_app",
   "App": "ICESIM",
   "JobDescription": "ICESIM",
   "JobName": "cubevnc",
   "Cluster": "aip",
   "CPU_Cost": 0.4655753032804167,
   "Mem_Cost": 0,
   "GPU_Cost": 0,
   "App_Cost": 0,
   "StartDate": "2020/12/17",
   "Project": "default"
  },
  {
   "CPU_Hours": 0.22194444444444444,
   "Mem_GB_Hours": 0.0018849934471978083,
   "GPU_Hours": 0,
   "Runtime": 0.013055555555555556,
   "App_Hours": 0.22194444444444444,
   "JobId": "19185",
   "Queue": "q_x86_cn_sim_plus",
   "User": "amd_app",
   "App": "StarCCM",
   "JobDescription": "StarCCM",
   "JobName": "cubevnc",
   "Cluster": "aip",
   "CPU_Cost": 0.11097222222222222,
   "Mem_Cost": 0,
   "GPU_Cost": 0,
   "App_Cost": 0,
   "StartDate": "2020/12/02",
   "Project": "default"
  },
  {
   "CPU_Hours": 0.30472943822027776,
   "Mem_GB_Hours": 1.0708020543708936,
   "GPU_Hours": 0,
   "Runtime": 0.30472943822027776,
   "App_Hours": 0.30472943822027776,
   "JobId": "22458",
   "Queue": "local",
   "User": "amd_app",
   "App": "ICESIM",
   "JobDescription": "ICESIM",
   "JobName": "cubevnc",
   "Cluster": "aip",
   "CPU_Cost": 0.15236471911013888,
   "Mem_Cost": 0,
   "GPU_Cost": 0,
   "App_Cost": 0,
   "StartDate": "2020/12/22",
   "Project": "default"
  },
  {
   "CPU_Hours": 0.5611372982733334,
   "Mem_GB_Hours": 0.006294443474202898,
   "GPU_Hours": 0,
   "Runtime": 0.14028432456833334,
   "App_Hours": 0.5611372982733334,
   "JobId": "19980",
   "Queue": "q_x86_share",
   "User": "amd_app",
   "App": "ICESimulator",
   "JobDescription": "pcb200",
   "JobName": "/home/export/online3/amd_share/anaconda/bin/python3 /home/export/online3/amd_app/wxy/cas2foam/generate.py q_x86_share 4 100 20 /home/export/online3/amd_app/IcesimProject/pcb200 pcb200.cas",
   "Cluster": "aip",
   "CPU_Cost": 0.2805686491366667,
   "Mem_Cost": 0,
   "GPU_Cost": 0,
   "App_Cost": 0,
   "StartDate": "2020/12/08",
   "Project": "default"
  },
  {
   "CPU_Hours": 0.003611111111111111,
   "Mem_GB_Hours": 0.00004602326287163628,
   "GPU_Hours": 0,
   "Runtime": 0.003611111111111111,
   "App_Hours": 0.003611111111111111,
   "JobId": "19806",
   "Queue": "q_x86_cn_sim",
   "User": "amd_app",
   "App": "SC_Batch1404",
   "JobDescription": "SC_Batch1404",
   "JobName": "/home/export/online3/amd_share/shangruan/bin/starccmyaml1404 /home/export/base/nsccwuxi_amd/amd_app/WORK/Simforge_tutorial/adjointWing_start_1404.sim",
   "Cluster": "aip",
   "CPU_Cost": 0.0018055555555555555,
   "Mem_Cost": 0,
   "GPU_Cost": 0,
   "App_Cost": 0,
   "StartDate": "2020/12/07",
   "Project": "default"
  },
  {
   "CPU_Hours": 108.29818453721138,
   "Mem_GB_Hours": 42.80748594613713,
   "GPU_Hours": 108.29818453721138,
   "Runtime": 108.29818453721138,
   "App_Hours": 108.29818453721138,
   "JobId": "22569",
   "Queue": "local",
   "User": "amd_app",
   "App": "PointWise",
   "JobDescription": "PointWise",
   "JobName": "cubevnc",
   "Cluster": "aip",
   "CPU_Cost": 54.14909226860569,
   "Mem_Cost": 0,
   "GPU_Cost": 54.14909226860569,
   "App_Cost": 0,
   "StartDate": "2020/12/23",
   "Project": "default"
  },
  {
   "CPU_Hours": 179.77371583130676,
   "Mem_GB_Hours": 0.5750455618668223,
   "GPU_Hours": 0,
   "Runtime": 22.471714478913345,
   "App_Hours": 179.77371583130676,
   "JobId": "21149",
   "Queue": "q_x86_share",
   "User": "amd_app",
   "App": "ICESIM",
   "JobDescription": "ICESIM-RF01",
   "JobName": "/home/export/online3/amd_share/anaconda/bin/python3 /home/export/online3/amd_app/wxy/cas2foam/generate.py q_x86_share 8 100 20 /home/export/online3/amd_app/IcesimProject/RF01 RF01.cas",
   "Cluster": "aip",
   "CPU_Cost": 89.88685791565338,
   "Mem_Cost": 0,
   "GPU_Cost": 0,
   "App_Cost": 0,
   "StartDate": "2020/12/16",
   "Project": "default"
  },
  {
   "CPU_Hours": 20.501037844400003,
   "Mem_GB_Hours": 0.0019622530698616917,
   "GPU_Hours": 0,
   "Runtime": 0.17084198203666667,
   "App_Hours": 20.501037844400003,
   "JobId": "21992",
   "Queue": "q_x86_share",
   "User": "amd_app",
   "App": "CFX2020",
   "JobDescription": "CFX2020",
   "JobName": "/home/export/online3/amd_share/shangruan/bin/cfxyaml2020 /home/export/base/nsccwuxi_amd/amd_app/WORK/Zhouhl/Project/SimGO/CFX/EX05/parallel_120/EX05-120.def no",
   "Cluster": "aip",
   "CPU_Cost": 10.250518922200001,
   "Mem_Cost": 0,
   "GPU_Cost": 0,
   "App_Cost": 0,
   "StartDate": "2020/12/19",
   "Project": "default"
  },
  {
   "CPU_Hours": 0.3111111111111111,
   "Mem_GB_Hours": 0.0047545962863498265,
   "GPU_Hours": 0,
   "Runtime": 0.07777777777777778,
   "App_Hours": 0.3111111111111111,
   "JobId": "24329",
   "Queue": "q_x86_share",
   "User": "amd_app",
   "App": "ICESIM",
   "JobDescription": "ICESIM/test444-4",
   "JobName": "/home/export/online3/amd_share/anaconda/bin/python3 /home/export/online3/amd_app/wxy/cas2foam/generate.py q_x86_share 4 50 10 /home/export/online3/amd_app/IcesimProject/test444-4 jixiang00.cas",
   "Cluster": "aip",
   "CPU_Cost": 0.15555555555555556,
   "Mem_Cost": 0,
   "GPU_Cost": 0,
   "App_Cost": 0,
   "StartDate": "2020/12/31",
   "Project": "default"
  },
  {
   "CPU_Hours": 0,
   "Mem_GB_Hours": 0,
   "GPU_Hours": 0,
   "Runtime": 0,
   "App_Hours": 0,
   "JobId": "19277",
   "Queue": "local",
   "User": "amd_app",
   "App": "电子散热APP",
   "JobDescription": "电子散热APP",
   "JobName": "cubevnc",
   "Cluster": "aip",
   "CPU_Cost": 0,
   "Mem_Cost": 0,
   "GPU_Cost": 0,
   "App_Cost": 0,
   "StartDate": "2020/12/03",
   "Project": "default"
  },
  {
   "CPU_Hours": 0.035555555555555556,
   "Mem_GB_Hours": 0.12456095377604166,
   "GPU_Hours": 0,
   "Runtime": 0.035555555555555556,
   "App_Hours": 0.035555555555555556,
   "JobId": "21176",
   "Queue": "local",
   "User": "amd_app",
   "App": "ICESIM",
   "JobDescription": "ICESIM",
   "JobName": "cubevnc",
   "Cluster": "aip",
   "CPU_Cost": 0.017777777777777778,
   "Mem_Cost": 0,
   "GPU_Cost": 0,
   "App_Cost": 0,
   "StartDate": "2020/12/16",
   "Project": "default"
  },
  {
   "CPU_Hours": 17.83401560864,
   "Mem_GB_Hours": 0.08202853951734675,
   "GPU_Hours": 0,
   "Runtime": 0.7430839836933333,
   "App_Hours": 17.83401560864,
   "JobId": "21506",
   "Queue": "q_x86_share",
   "User": "amd_app",
   "App": "Fluent",
   "JobDescription": "Fluent",
   "JobName": "cubevnc",
   "Cluster": "aip",
   "CPU_Cost": 8.91700780432,
   "Mem_Cost": 0,
   "GPU_Cost": 0,
   "App_Cost": 0,
   "StartDate": "2020/12/17",
   "Project": "default"
  },
  {
   "CPU_Hours": 2.798962542916389,
   "Mem_GB_Hours": 10.6990600919079,
   "GPU_Hours": 0,
   "Runtime": 2.798962542916389,
   "App_Hours": 2.798962542916389,
   "JobId": "19951",
   "Queue": "local",
   "User": "amd_app",
   "App": "电子散热APP",
   "JobDescription": "电子散热APP",
   "JobName": "cubevnc",
   "Cluster": "aip",
   "CPU_Cost": 1.3994812714581946,
   "Mem_Cost": 0,
   "GPU_Cost": 0,
   "App_Cost": 0,
   "StartDate": "2020/12/08",
   "Project": "default"
  },
  {
   "CPU_Hours": 0.22,
   "Mem_GB_Hours": 0.0034607887268066407,
   "GPU_Hours": 0,
   "Runtime": 0.0275,
   "App_Hours": 0.22,
   "JobId": "20800",
   "Queue": "q_x86_share",
   "User": "amd_app",
   "App": "ICESIM",
   "JobDescription": "ICESIM-sanre0200",
   "JobName": "/home/export/online3/amd_share/anaconda/bin/python3 /home/export/online3/amd_app/wxy/cas2foam/generate.py q_x86_share 8 100 20 /home/export/online3/amd_app/IcesimProject/sanre0200 sanre0200.cas",
   "Cluster": "aip",
   "CPU_Cost": 0.11,
   "Mem_Cost": 0,
   "GPU_Cost": 0,
   "App_Cost": 0,
   "StartDate": "2020/12/14",
   "Project": "default"
  },
  {
   "CPU_Hours": 0.008888888888888889,
   "Mem_GB_Hours": 0.0006665717230902778,
   "GPU_Hours": 0,
   "Runtime": 0.008888888888888889,
   "App_Hours": 0.008888888888888889,
   "JobId": "19771",
   "Queue": "q_x86_expr",
   "User": "amd_app",
   "App": "Fluent",
   "JobDescription": "Fluent",
   "JobName": "cubevnc",
   "Cluster": "aip",
   "CPU_Cost": 0.0044444444444444444,
   "Mem_Cost": 0,
   "GPU_Cost": 0,
   "App_Cost": 0,
   "StartDate": "2020/12/07",
   "Project": "default"
  },
  {
   "CPU_Hours": 0.17555555555555555,
   "Mem_GB_Hours": 0.00025833341810438366,
   "GPU_Hours": 0,
   "Runtime": 0.021944444444444444,
   "App_Hours": 0.17555555555555555,
   "JobId": "20502",
   "Queue": "q_x86_expr",
   "User": "amd_app",
   "App": "Fluent",
   "JobDescription": "sanre01.uns_in",
   "JobName": "/home/export/online3/amd_app/wxy/ICEPAK_MODEL/sanre01/sanre01.uns_in",
   "Cluster": "aip",
   "CPU_Cost": 0.08777777777777777,
   "Mem_Cost": 0,
   "GPU_Cost": 0,
   "App_Cost": 0,
   "StartDate": "2020/12/11",
   "Project": "default"
  },
  {
   "CPU_Hours": 0.08861111111111111,
   "Mem_GB_Hours": 0.01981601397196452,
   "GPU_Hours": 0,
   "Runtime": 0.08861111111111111,
   "App_Hours": 0.08861111111111111,
   "JobId": "23783",
   "Queue": "local",
   "User": "amd_app",
   "App": "ICESIM",
   "JobDescription": "ICESIM",
   "JobName": "cubevnc",
   "Cluster": "aip",
   "CPU_Cost": 0.044305555555555556,
   "Mem_Cost": 0,
   "GPU_Cost": 0,
   "App_Cost": 0,
   "StartDate": "2020/12/29",
   "Project": "default"
  },
  {
   "CPU_Hours": 0.0011111111111111111,
   "Mem_GB_Hours": 0.000005433824327256944,
   "GPU_Hours": 0,
   "Runtime": 0.0011111111111111111,
   "App_Hours": 0.0011111111111111111,
   "JobId": "21215",
   "Queue": "local",
   "User": "amd_app",
   "App": "ICESIM",
   "JobDescription": "ICESIM",
   "JobName": "cubevnc",
   "Cluster": "aip",
   "CPU_Cost": 0.0005555555555555556,
   "Mem_Cost": 0,
   "GPU_Cost": 0,
   "App_Cost": 0,
   "StartDate": "2020/12/16",
   "Project": "default"
  },
  {
   "CPU_Hours": 0.18167595402777778,
   "Mem_GB_Hours": 0.5750489735882812,
   "GPU_Hours": 0,
   "Runtime": 0.18167595402777778,
   "App_Hours": 0.18167595402777778,
   "JobId": "22658",
   "Queue": "local",
   "User": "amd_app",
   "App": "ICESIM",
   "JobDescription": "ICESIM",
   "JobName": "cubevnc",
   "Cluster": "aip",
   "CPU_Cost": 0.09083797701388889,
   "Mem_Cost": 0,
   "GPU_Cost": 0,
   "App_Cost": 0,
   "StartDate": "2020/12/23",
   "Project": "default"
  },
  {
   "CPU_Hours": 0.07555555555555556,
   "Mem_GB_Hours": 0.000060886806911892365,
   "GPU_Hours": 0,
   "Runtime": 0.004722222222222222,
   "App_Hours": 0.07555555555555556,
   "JobId": "22159",
   "Queue": "q_x86_share",
   "User": "amd_app",
   "App": "Abaqus",
   "JobDescription": "Job-100251-Model-1",
   "JobName": "Job-100251",
   "Cluster": "aip",
   "CPU_Cost": 0.03777777777777778,
   "Mem_Cost": 0,
   "GPU_Cost": 0,
   "App_Cost": 0,
   "StartDate": "2020/12/21",
   "Project": "default"
  },
  {
   "CPU_Hours": 12.593899660246667,
   "Mem_GB_Hours": 0.06168406486590389,
   "GPU_Hours": 0,
   "Runtime": 0.5247458191769444,
   "App_Hours": 12.593899660246667,
   "JobId": "21762",
   "Queue": "q_x86_share",
   "User": "amd_app",
   "App": "Fluent",
   "JobDescription": "Fluent",
   "JobName": "cubevnc",
   "Cluster": "aip",
   "CPU_Cost": 6.296949830123333,
   "Mem_Cost": 0,
   "GPU_Cost": 0,
   "App_Cost": 0,
   "StartDate": "2020/12/18",
   "Project": "default"
  },
  {
   "CPU_Hours": 0.9655949741894444,
   "Mem_GB_Hours": 3.661276506855855,
   "GPU_Hours": 0,
   "Runtime": 0.9655949741894444,
   "App_Hours": 0.9655949741894444,
   "JobId": "21290",
   "Queue": "local",
   "User": "amd_app",
   "App": "ICESIM",
   "JobDescription": "ICESIM",
   "JobName": "cubevnc",
   "Cluster": "aip",
   "CPU_Cost": 0.4827974870947222,
   "Mem_Cost": 0,
   "GPU_Cost": 0,
   "App_Cost": 0,
   "StartDate": "2020/12/17",
   "Project": "default"
  },
  {
   "CPU_Hours": 0.21222222222222223,
   "Mem_GB_Hours": 0.0009817981719970703,
   "GPU_Hours": 0,
   "Runtime": 0.05305555555555556,
   "App_Hours": 0.21222222222222223,
   "JobId": "24192",
   "Queue": "q_x86_share",
   "User": "amd_app",
   "App": "ICESIM",
   "JobDescription": "ICESIM/test444-1",
   "JobName": "/home/export/online3/amd_share/anaconda/bin/python3 /home/export/online3/amd_app/wxy/cas2foam/generate.py q_x86_share 4 100 20 /home/export/online3/amd_app/IcesimProject/test444-1 pcb200.cas",
   "Cluster": "aip",
   "CPU_Cost": 0.10611111111111111,
   "Mem_Cost": 0,
   "GPU_Cost": 0,
   "App_Cost": 0,
   "StartDate": "2020/12/31",
   "Project": "default"
  },
  {
   "CPU_Hours": 15.301767509774999,
   "Mem_GB_Hours": 4.084994188416063,
   "GPU_Hours": 0,
   "Runtime": 15.301767509774999,
   "App_Hours": 15.301767509774999,
   "JobId": "18797",
   "Queue": "q_x86_share",
   "User": "amd_app",
   "App": "Fluent",
   "JobDescription": "Fluent",
   "JobName": "cubevnc",
   "Cluster": "aip",
   "CPU_Cost": 7.6508837548874995,
   "Mem_Cost": 0,
   "GPU_Cost": 0,
   "App_Cost": 0,
   "StartDate": "2020/11/29",
   "Project": "default"
  },
  {
   "CPU_Hours": 0.14472222222222222,
   "Mem_GB_Hours": 0.04501259485880534,
   "GPU_Hours": 0,
   "Runtime": 0.14472222222222222,
   "App_Hours": 0.14472222222222222,
   "JobId": "24022",
   "Queue": "local",
   "User": "amd_app",
   "App": "ICESIM",
   "JobDescription": "ICESIM",
   "JobName": "cubevnc",
   "Cluster": "aip",
   "CPU_Cost": 0.07236111111111111,
   "Mem_Cost": 0,
   "GPU_Cost": 0,
   "App_Cost": 0,
   "StartDate": "2020/12/30",
   "Project": "default"
  },
  {
   "CPU_Hours": 0,
   "Mem_GB_Hours": 0,
   "GPU_Hours": 0,
   "Runtime": 0,
   "App_Hours": 0,
   "JobId": "19281",
   "Queue": "local",
   "User": "amd_app",
   "App": "电子散热APP",
   "JobDescription": "电子散热APP",
   "JobName": "cubevnc",
   "Cluster": "aip",
   "CPU_Cost": 0,
   "Mem_Cost": 0,
   "GPU_Cost": 0,
   "App_Cost": 0,
   "StartDate": "2020/12/03",
   "Project": "default"
  },
  {
   "CPU_Hours": 0.3764042712361111,
   "Mem_GB_Hours": 0.2121286938013175,
   "GPU_Hours": 0.3764042712361111,
   "Runtime": 0.3764042712361111,
   "App_Hours": 0.3764042712361111,
   "JobId": "22152",
   "Queue": "local",
   "User": "amd_app",
   "App": "Abaqus",
   "JobDescription": "Abaqus",
   "JobName": "cubevnc",
   "Cluster": "aip",
   "CPU_Cost": 0.18820213561805554,
   "Mem_Cost": 0,
   "GPU_Cost": 0.18820213561805554,
   "App_Cost": 0,
   "StartDate": "2020/12/21",
   "Project": "default"
  },
  {
   "CPU_Hours": 0.09277777777777778,
   "Mem_GB_Hours": 0.034770962397257486,
   "GPU_Hours": 0,
   "Runtime": 0.04638888888888889,
   "App_Hours": 0.09277777777777778,
   "JobId": "20010",
   "Queue": "q_x86_expr_plus",
   "User": "amd_app",
   "App": "StarCCM",
   "JobDescription": "StarCCM",
   "JobName": "cubevnc",
   "Cluster": "aip",
   "CPU_Cost": 0.04638888888888889,
   "Mem_Cost": 0,
   "GPU_Cost": 0,
   "App_Cost": 0,
   "StartDate": "2020/12/08",
   "Project": "default"
  },
  {
   "CPU_Hours": 0.013333333333333334,
   "Mem_GB_Hours": 0.0029671223958333335,
   "GPU_Hours": 0,
   "Runtime": 0.013333333333333334,
   "App_Hours": 0.013333333333333334,
   "JobId": "22756",
   "Queue": "local",
   "User": "amd_app",
   "App": "ICESIM",
   "JobDescription": "ICESIM",
   "JobName": "cubevnc",
   "Cluster": "aip",
   "CPU_Cost": 0.006666666666666667,
   "Mem_Cost": 0,
   "GPU_Cost": 0,
   "App_Cost": 0,
   "StartDate": "2020/12/24",
   "Project": "default"
  },
  {
   "CPU_Hours": 0.27111111111111114,
   "Mem_GB_Hours": 0.002423792945014106,
   "GPU_Hours": 0,
   "Runtime": 0.03388888888888889,
   "App_Hours": 0.27111111111111114,
   "JobId": "20107",
   "Queue": "q_x86_share",
   "User": "amd_app",
   "App": "ICESimulator",
   "JobDescription": "cold-plate01",
   "JobName": "/home/export/online3/amd_share/anaconda/bin/python3 /home/export/online3/amd_app/wxy/cas2foam/generate.py q_x86_share 8 100 20 /home/export/online3/amd_app/IcesimProject/cold-plate01 cold-plate01.cas",
   "Cluster": "aip",
   "CPU_Cost": 0.13555555555555557,
   "Mem_Cost": 0,
   "GPU_Cost": 0,
   "App_Cost": 0,
   "StartDate": "2020/12/09",
   "Project": "default"
  },
  {
   "CPU_Hours": 4.001558551240556,
   "Mem_GB_Hours": 2.1685033692783744,
   "GPU_Hours": 4.001558551240556,
   "Runtime": 4.001558551240556,
   "App_Hours": 4.001558551240556,
   "JobId": "23520",
   "Queue": "local",
   "User": "amd_app",
   "App": "Abaqus",
   "JobDescription": "Abaqus",
   "JobName": "cubevnc",
   "Cluster": "aip",
   "CPU_Cost": 2.000779275620278,
   "Mem_Cost": 0,
   "GPU_Cost": 2.000779275620278,
   "App_Cost": 0,
   "StartDate": "2020/12/28",
   "Project": "default"
  },
  {
   "CPU_Hours": 4.001270094387222,
   "Mem_GB_Hours": 1.0665347702732406,
   "GPU_Hours": 4.001270094387222,
   "Runtime": 4.001270094387222,
   "App_Hours": 4.001270094387222,
   "JobId": "22917",
   "Queue": "local",
   "User": "amd_app",
   "App": "ICEPAK",
   "JobDescription": "ICEPAK",
   "JobName": "cubevnc",
   "Cluster": "aip",
   "CPU_Cost": 2.000635047193611,
   "Mem_Cost": 0,
   "GPU_Cost": 2.000635047193611,
   "App_Cost": 0,
   "StartDate": "2020/12/25",
   "Project": "default"
  },
  {
   "CPU_Hours": 0.03944444444444444,
   "Mem_GB_Hours": 0.10356258180406358,
   "GPU_Hours": 0,
   "Runtime": 0.03944444444444444,
   "App_Hours": 0.03944444444444444,
   "JobId": "23903",
   "Queue": "local",
   "User": "amd_app",
   "App": "ICESIM",
   "JobDescription": "ICESIM",
   "JobName": "cubevnc",
   "Cluster": "aip",
   "CPU_Cost": 0.01972222222222222,
   "Mem_Cost": 0,
   "GPU_Cost": 0,
   "App_Cost": 0,
   "StartDate": "2020/12/30",
   "Project": "default"
  },
  {
   "CPU_Hours": 0.14888888888888888,
   "Mem_GB_Hours": 0.0021713341606987846,
   "GPU_Hours": 0,
   "Runtime": 0.03722222222222222,
   "App_Hours": 0.14888888888888888,
   "JobId": "19405",
   "Queue": "q_x86_cn_sim",
   "User": "amd_app",
   "App": "ICESimulator",
   "JobDescription": "ss",
   "JobName": "/home/export/online3/amd_share/anaconda/bin/python3 /home/export/online3/amd_app/wxy/cas2foam/generate.py q_x86_cn_sim 4 100 20 /home/export/online3/amd_app/IcesimProject/ss ss.cas",
   "Cluster": "aip",
   "CPU_Cost": 0.07444444444444444,
   "Mem_Cost": 0,
   "GPU_Cost": 0,
   "App_Cost": 0,
   "StartDate": "2020/12/04",
   "Project": "default"
  },
  {
   "CPU_Hours": 0.5505738959605555,
   "Mem_GB_Hours": 0.19912031153090543,
   "GPU_Hours": 0.5505738959605555,
   "Runtime": 0.5505738959605555,
   "App_Hours": 0.5505738959605555,
   "JobId": "20510",
   "Queue": "local",
   "User": "amd_app",
   "App": "ICEPAK",
   "JobDescription": "RF01",
   "JobName": "cubevnc",
   "Cluster": "aip",
   "CPU_Cost": 0.27528694798027775,
   "Mem_Cost": 0,
   "GPU_Cost": 0.27528694798027775,
   "App_Cost": 0,
   "StartDate": "2020/12/11",
   "Project": "default"
  },
  {
   "CPU_Hours": 0.010555555555555556,
   "Mem_GB_Hours": 0.000134529537624783,
   "GPU_Hours": 0,
   "Runtime": 0.010555555555555556,
   "App_Hours": 0.010555555555555556,
   "JobId": "19798",
   "Queue": "q_x86_cn_sim",
   "User": "amd_app",
   "App": "SC_Batch1404",
   "JobDescription": "SC_Batch1404",
   "JobName": "/home/export/online3/amd_share/shangruan/bin/starccmyaml1404 /home/export/base/nsccwuxi_amd/amd_app/WORK/Simforge_tutorial/adjointWing_start_1206-2.sim",
   "Cluster": "aip",
   "CPU_Cost": 0.005277777777777778,
   "Mem_Cost": 0,
   "GPU_Cost": 0,
   "App_Cost": 0,
   "StartDate": "2020/12/07",
   "Project": "default"
  },
  {
   "CPU_Hours": 0.0005555555555555556,
   "Mem_GB_Hours": 0.0000035699208577473957,
   "GPU_Hours": 0,
   "Runtime": 0.0002777777777777778,
   "App_Hours": 0.0005555555555555556,
   "JobId": "21197",
   "Queue": "q_x86_share",
   "User": "amd_app",
   "App": "ICESIM",
   "JobDescription": "ICESIM-ss",
   "JobName": "/home/export/online3/amd_share/anaconda/bin/python3 /home/export/online3/amd_app/wxy/cas2foam/generate.py q_x86_share 2 100 20 /home/export/online3/amd_app/IcesimProject/ss-1 ss.cas",
   "Cluster": "aip",
   "CPU_Cost": 0.0002777777777777778,
   "Mem_Cost": 0,
   "GPU_Cost": 0,
   "App_Cost": 0,
   "StartDate": "2020/12/16",
   "Project": "default"
  },
  {
   "CPU_Hours": 0.17055555555555554,
   "Mem_GB_Hours": 0.013777157465616861,
   "GPU_Hours": 0,
   "Runtime": 0.08527777777777777,
   "App_Hours": 0.17055555555555554,
   "JobId": "22613",
   "Queue": "q_x86_share",
   "User": "amd_app",
   "App": "ICESIM",
   "JobDescription": "ICESIM/pcb200-5",
   "JobName": "/home/export/online3/amd_share/anaconda/bin/python3 /home/export/online3/amd_app/wxy/cas2foam/generate.py q_x86_share 2 10 1 /home/export/online3/amd_app/IcesimProject/pcb200-5 pcb200.cas",
   "Cluster": "aip",
   "CPU_Cost": 0.08527777777777777,
   "Mem_Cost": 0,
   "GPU_Cost": 0,
   "App_Cost": 0,
   "StartDate": "2020/12/23",
   "Project": "default"
  },
  {
   "CPU_Hours": 1.1992189809933333,
   "Mem_GB_Hours": 0.3603715805763994,
   "GPU_Hours": 0,
   "Runtime": 1.1992189809933333,
   "App_Hours": 1.1992189809933333,
   "JobId": "20344",
   "Queue": "local",
   "User": "amd_app",
   "App": "ICESIM",
   "JobDescription": "ICESIM",
   "JobName": "cubevnc",
   "Cluster": "aip",
   "CPU_Cost": 0.5996094904966667,
   "Mem_Cost": 0,
   "GPU_Cost": 0,
   "App_Cost": 0,
   "StartDate": "2020/12/10",
   "Project": "default"
  },
  {
   "CPU_Hours": 0.042222222222222223,
   "Mem_GB_Hours": 0.0003045336405436198,
   "GPU_Hours": 0,
   "Runtime": 0.005277777777777778,
   "App_Hours": 0.042222222222222223,
   "JobId": "21374",
   "Queue": "q_x86_share",
   "User": "amd_app",
   "App": "ICESIM",
   "JobDescription": "ICESIM-test2",
   "JobName": "/home/export/online3/amd_share/anaconda/bin/python3 /home/export/online3/amd_app/wxy/cas2foam/generate.py q_x86_share 8 100 20 /home/export/base/nsccwuxi_amd/amd_app/online3/IcesimProject/test2 ss.cas",
   "Cluster": "aip",
   "CPU_Cost": 0.021111111111111112,
   "Mem_Cost": 0,
   "GPU_Cost": 0,
   "App_Cost": 0,
   "StartDate": "2020/12/17",
   "Project": "default"
  },
  {
   "CPU_Hours": 0.1688888888888889,
   "Mem_GB_Hours": 0.001438632541232639,
   "GPU_Hours": 0,
   "Runtime": 0.021111111111111112,
   "App_Hours": 0.1688888888888889,
   "JobId": "20833",
   "Queue": "q_x86_share",
   "User": "amd_app",
   "App": "ICESIM",
   "JobDescription": "ICESIM-jixiang00",
   "JobName": "/home/export/online3/amd_share/anaconda/bin/python3 /home/export/online3/amd_app/wxy/cas2foam/generate.py q_x86_share 8 100 20 /home/export/online3/amd_app/IcesimProject/jixiang00 jixiang00.cas",
   "Cluster": "aip",
   "CPU_Cost": 0.08444444444444445,
   "Mem_Cost": 0,
   "GPU_Cost": 0,
   "App_Cost": 0,
   "StartDate": "2020/12/14",
   "Project": "default"
  },
  {
   "CPU_Hours": 0.06777777777777778,
   "Mem_GB_Hours": 0.0009005355834960938,
   "GPU_Hours": 0,
   "Runtime": 0.016944444444444446,
   "App_Hours": 0.06777777777777778,
   "JobId": "22499",
   "Queue": "q_x86_share",
   "User": "amd_app",
   "App": "ICESIM",
   "JobDescription": "ICESIM/ss-2",
   "JobName": "/home/export/online3/amd_share/anaconda/bin/python3 /home/export/online3/amd_app/wxy/cas2foam/generate.py q_x86_share 4 10 1 /home/export/online3/amd_app/IcesimProject/ss-2 ss.cas",
   "Cluster": "aip",
   "CPU_Cost": 0.03388888888888889,
   "Mem_Cost": 0,
   "GPU_Cost": 0,
   "App_Cost": 0,
   "StartDate": "2020/12/22",
   "Project": "default"
  },
  {
   "CPU_Hours": 0.38555555555555554,
   "Mem_GB_Hours": 0.00548600090874566,
   "GPU_Hours": 0,
   "Runtime": 0.09638888888888889,
   "App_Hours": 0.38555555555555554,
   "JobId": "24181",
   "Queue": "q_x86_share",
   "User": "amd_app",
   "App": "ICESIM",
   "JobDescription": "ICESIM/test444",
   "JobName": "/home/export/online3/amd_share/anaconda/bin/python3 /home/export/online3/amd_app/wxy/cas2foam/generate.py q_x86_share 4 100 20 /home/export/base/nsccwuxi_amd/amd_app/online3/IcesimProject/test444 ss.cas",
   "Cluster": "aip",
   "CPU_Cost": 0.19277777777777777,
   "Mem_Cost": 0,
   "GPU_Cost": 0,
   "App_Cost": 0,
   "StartDate": "2020/12/31",
   "Project": "default"
  },
  {
   "CPU_Hours": 4.001281263825278,
   "Mem_GB_Hours": 0.8146420182748034,
   "GPU_Hours": 4.001281263825278,
   "Runtime": 4.001281263825278,
   "App_Hours": 4.001281263825278,
   "JobId": "23491",
   "Queue": "local",
   "User": "amd_app",
   "App": "TankSim",
   "JobDescription": "TankSim",
   "JobName": "cubevnc",
   "Cluster": "aip",
   "CPU_Cost": 2.000640631912639,
   "Mem_Cost": 0,
   "GPU_Cost": 2.000640631912639,
   "App_Cost": 0,
   "StartDate": "2020/12/28",
   "Project": "default"
  },
  {
   "CPU_Hours": 0.47333333333333333,
   "Mem_GB_Hours": 0.003337243398030599,
   "GPU_Hours": 0,
   "Runtime": 0.059166666666666666,
   "App_Hours": 0.47333333333333333,
   "JobId": "21371",
   "Queue": "q_x86_share",
   "User": "amd_app",
   "App": "ICESIM",
   "JobDescription": "ICESIM-test1",
   "JobName": "/home/export/online3/amd_share/anaconda/bin/python3 /home/export/online3/amd_app/wxy/cas2foam/generate.py q_x86_share 8 100 20 /home/export/base/nsccwuxi_amd/amd_app/online3/IcesimProject/test1 ss.cas",
   "Cluster": "aip",
   "CPU_Cost": 0.23666666666666666,
   "Mem_Cost": 0,
   "GPU_Cost": 0,
   "App_Cost": 0,
   "StartDate": "2020/12/17",
   "Project": "default"
  },
  {
   "CPU_Hours": 8.001738129425554,
   "Mem_GB_Hours": 3.880451844931127,
   "GPU_Hours": 8.001738129425554,
   "Runtime": 8.001738129425554,
   "App_Hours": 8.001738129425554,
   "JobId": "24017",
   "Queue": "local",
   "User": "amd_app",
   "App": "ParaView",
   "JobDescription": "ParaView",
   "JobName": "cubevnc",
   "Cluster": "aip",
   "CPU_Cost": 4.000869064712777,
   "Mem_Cost": 0,
   "GPU_Cost": 4.000869064712777,
   "App_Cost": 0,
   "StartDate": "2020/12/30",
   "Project": "default"
  },
  {
   "CPU_Hours": 1.4806206113255553,
   "Mem_GB_Hours": 0.02542754837826503,
   "GPU_Hours": 0,
   "Runtime": 0.7403103056627777,
   "App_Hours": 1.4806206113255553,
   "JobId": "23795",
   "Queue": "q_x86_share",
   "User": "amd_app",
   "App": "ICESIM",
   "JobDescription": "ICESIM/wwwwwwwwewewewewe",
   "JobName": "/home/export/online3/amd_share/anaconda/bin/python3 /home/export/online3/amd_app/wxy/cas2foam/generate.py q_x86_share 2 100 20 /home/export/base/nsccwuxi_amd/amd_app/online3/IcesimProject/wwwwwwwwewewewewe pcb200.cas",
   "Cluster": "aip",
   "CPU_Cost": 0.7403103056627777,
   "Mem_Cost": 0,
   "GPU_Cost": 0,
   "App_Cost": 0,
   "StartDate": "2020/12/29",
   "Project": "default"
  },
  {
   "CPU_Hours": 27.721255134933333,
   "Mem_GB_Hours": 0.07287881929028907,
   "GPU_Hours": 0,
   "Runtime": 0.5775261486444445,
   "App_Hours": 27.721255134933333,
   "JobId": "21936",
   "Queue": "q_x86_share",
   "User": "amd_app",
   "App": "Fluent",
   "JobDescription": "Fluent",
   "JobName": "cubevnc",
   "Cluster": "aip",
   "CPU_Cost": 13.860627567466667,
   "Mem_Cost": 0,
   "GPU_Cost": 0,
   "App_Cost": 0,
   "StartDate": "2020/12/19",
   "Project": "default"
  },
  {
   "CPU_Hours": 0.0175,
   "Mem_GB_Hours": 0.05889841079711915,
   "GPU_Hours": 0,
   "Runtime": 0.0175,
   "App_Hours": 0.0175,
   "JobId": "21174",
   "Queue": "local",
   "User": "amd_app",
   "App": "ICESIM",
   "JobDescription": "ICESIM",
   "JobName": "cubevnc",
   "Cluster": "aip",
   "CPU_Cost": 0.00875,
   "Mem_Cost": 0,
   "GPU_Cost": 0,
   "App_Cost": 0,
   "StartDate": "2020/12/16",
   "Project": "default"
  },
  {
   "CPU_Hours": 1.7605975432383334,
   "Mem_GB_Hours": 2.5753902138219935,
   "GPU_Hours": 0,
   "Runtime": 1.7605975432383334,
   "App_Hours": 1.7605975432383334,
   "JobId": "20106",
   "Queue": "local",
   "User": "amd_app",
   "App": "电子散热APP",
   "JobDescription": "电子散热APP",
   "JobName": "cubevnc",
   "Cluster": "aip",
   "CPU_Cost": 0.8802987716191667,
   "Mem_Cost": 0,
   "GPU_Cost": 0,
   "App_Cost": 0,
   "StartDate": "2020/12/09",
   "Project": "default"
  },
  {
   "CPU_Hours": 0.08334656692388889,
   "Mem_GB_Hours": 0.002229968562529508,
   "GPU_Hours": 0,
   "Runtime": 0.041673283461944446,
   "App_Hours": 0.08334656692388889,
   "JobId": "19955",
   "Queue": "q_x86_share",
   "User": "amd_app",
   "App": "ICESimulator",
   "JobDescription": "ss",
   "JobName": "/home/export/online3/amd_share/anaconda/bin/python3 /home/export/online3/amd_app/wxy/cas2foam/generate.py q_x86_share 2 100 20 /home/export/online3/amd_app/IcesimProject/ss ss.cas",
   "Cluster": "aip",
   "CPU_Cost": 0.041673283461944446,
   "Mem_Cost": 0,
   "GPU_Cost": 0,
   "App_Cost": 0,
   "StartDate": "2020/12/08",
   "Project": "default"
  },
  {
   "CPU_Hours": 10.233872424014166,
   "Mem_GB_Hours": 10.415468171280194,
   "GPU_Hours": 10.233872424014166,
   "Runtime": 10.233872424014166,
   "App_Hours": 10.233872424014166,
   "JobId": "20083",
   "Queue": "local",
   "User": "amd_app",
   "App": "Hypermesh",
   "JobDescription": "Hypermesh",
   "JobName": "cubevnc",
   "Cluster": "aip",
   "CPU_Cost": 5.116936212007083,
   "Mem_Cost": 0,
   "GPU_Cost": 5.116936212007083,
   "App_Cost": 0,
   "StartDate": "2020/12/09",
   "Project": "default"
  },
  {
   "CPU_Hours": 0.2,
   "Mem_GB_Hours": 0.00029430389404296877,
   "GPU_Hours": 0,
   "Runtime": 0.025,
   "App_Hours": 0.2,
   "JobId": "20500",
   "Queue": "q_x86_share",
   "User": "amd_app",
   "App": "Fluent",
   "JobDescription": "sanre00.uns_in",
   "JobName": "/home/export/online3/amd_app/wxy/ICEPAK_MODEL/sanre/sanre00.uns_in",
   "Cluster": "aip",
   "CPU_Cost": 0.1,
   "Mem_Cost": 0,
   "GPU_Cost": 0,
   "App_Cost": 0,
   "StartDate": "2020/12/11",
   "Project": "default"
  },
  {
   "CPU_Hours": 0.9989118571002779,
   "Mem_GB_Hours": 0.2764225672674668,
   "GPU_Hours": 0,
   "Runtime": 0.9989118571002779,
   "App_Hours": 0.9989118571002779,
   "JobId": "19810",
   "Queue": "q_x86_expr",
   "User": "amd_app",
   "App": "Fluent",
   "JobDescription": "Fluent",
   "JobName": "cubevnc",
   "Cluster": "aip",
   "CPU_Cost": 0.49945592855013893,
   "Mem_Cost": 0,
   "GPU_Cost": 0,
   "App_Cost": 0,
   "StartDate": "2020/12/07",
   "Project": "default"
  },
  {
   "CPU_Hours": 0.12222222222222222,
   "Mem_GB_Hours": 0.003074391682942708,
   "GPU_Hours": 0,
   "Runtime": 0.06111111111111111,
   "App_Hours": 0.12222222222222222,
   "JobId": "21362",
   "Queue": "q_x86_share",
   "User": "amd_app",
   "App": "ICESIM",
   "JobDescription": "ICESIM-test15",
   "JobName": "/home/export/online3/amd_share/anaconda/bin/python3 /home/export/online3/amd_app/wxy/cas2foam/generate.py q_x86_share 2 100 20 /home/export/base/nsccwuxi_amd/amd_app/online3/IcesimProject/test15 ss.cas",
   "Cluster": "aip",
   "CPU_Cost": 0.06111111111111111,
   "Mem_Cost": 0,
   "GPU_Cost": 0,
   "App_Cost": 0,
   "StartDate": "2020/12/17",
   "Project": "default"
  },
  {
   "CPU_Hours": 4.00152326526,
   "Mem_GB_Hours": 2.7088639612993397,
   "GPU_Hours": 4.00152326526,
   "Runtime": 4.00152326526,
   "App_Hours": 4.00152326526,
   "JobId": "22571",
   "Queue": "local",
   "User": "amd_app",
   "App": "ICEM-CFD",
   "JobDescription": "ICEM-CFD",
   "JobName": "cubevnc",
   "Cluster": "aip",
   "CPU_Cost": 2.00076163263,
   "Mem_Cost": 0,
   "GPU_Cost": 2.00076163263,
   "App_Cost": 0,
   "StartDate": "2020/12/23",
   "Project": "default"
  },
  {
   "CPU_Hours": 0.02,
   "Mem_GB_Hours": 0.002044677734375,
   "GPU_Hours": 0,
   "Runtime": 0.02,
   "App_Hours": 0.02,
   "JobId": "23757",
   "Queue": "q_x86_share",
   "User": "amd_app",
   "App": "Fluent",
   "JobDescription": "Fluent",
   "JobName": "cubevnc",
   "Cluster": "aip",
   "CPU_Cost": 0.01,
   "Mem_Cost": 0,
   "GPU_Cost": 0,
   "App_Cost": 0,
   "StartDate": "2020/12/29",
   "Project": "default"
  },
  {
   "CPU_Hours": 0.03916666666666667,
   "Mem_GB_Hours": 0.0020359961191813154,
   "GPU_Hours": 0,
   "Runtime": 0.03916666666666667,
   "App_Hours": 0.03916666666666667,
   "JobId": "24349",
   "Queue": "q_x86_share",
   "User": "amd_app",
   "App": "ICESIM",
   "JobDescription": "ICESIM/111-1",
   "JobName": "/home/export/online3/amd_share/anaconda/bin/python3 /home/export/online3/amd_app/wxy/cas2foam/generate.py q_x86_share 1 100 20 /home/export/online3/amd_app/IcesimProject/111-1 ss.cas",
   "Cluster": "aip",
   "CPU_Cost": 0.019583333333333335,
   "Mem_Cost": 0,
   "GPU_Cost": 0,
   "App_Cost": 0,
   "StartDate": "2020/12/31",
   "Project": "default"
  },
  {
   "CPU_Hours": 0.05138888888888889,
   "Mem_GB_Hours": 0.18009987937079536,
   "GPU_Hours": 0,
   "Runtime": 0.05138888888888889,
   "App_Hours": 0.05138888888888889,
   "JobId": "21201",
   "Queue": "local",
   "User": "amd_app",
   "App": "ICESIM",
   "JobDescription": "ICESIM",
   "JobName": "cubevnc",
   "Cluster": "aip",
   "CPU_Cost": 0.025694444444444443,
   "Mem_Cost": 0,
   "GPU_Cost": 0,
   "App_Cost": 0,
   "StartDate": "2020/12/16",
   "Project": "default"
  },
  {
   "CPU_Hours": 0.0011111111111111111,
   "Mem_GB_Hours": 0.0000036790635850694444,
   "GPU_Hours": 0,
   "Runtime": 0.0002777777777777778,
   "App_Hours": 0.0011111111111111111,
   "JobId": "22764",
   "Queue": "q_x86_expr",
   "User": "amd_app",
   "App": "ICESIM",
   "JobDescription": "ICESIM/RF",
   "JobName": "/home/export/online3/amd_share/anaconda/bin/python3 /home/export/online3/amd_app/wxy/cas2foam/generate.py q_x86_expr 4 2000 20 /home/export/base/nsccwuxi_amd/amd_app/online3/wxy/ICEPAK_MODEL/OF_test/RF RF101.nc.cas",
   "Cluster": "aip",
   "CPU_Cost": 0.0005555555555555556,
   "Mem_Cost": 0,
   "GPU_Cost": 0,
   "App_Cost": 0,
   "StartDate": "2020/12/24",
   "Project": "default"
  },
  {
   "CPU_Hours": 0.03944444444444444,
   "Mem_GB_Hours": 0.020814925299750434,
   "GPU_Hours": 0.03944444444444444,
   "Runtime": 0.03944444444444444,
   "App_Hours": 0.03944444444444444,
   "JobId": "22151",
   "Queue": "local",
   "User": "amd_app",
   "App": "Abaqus614",
   "JobDescription": "Abaqus614",
   "JobName": "cubevnc",
   "Cluster": "aip",
   "CPU_Cost": 0.01972222222222222,
   "Mem_Cost": 0,
   "GPU_Cost": 0.01972222222222222,
   "App_Cost": 0,
   "StartDate": "2020/12/21",
   "Project": "default"
  },
  {
   "CPU_Hours": 0.0033333333333333335,
   "Mem_GB_Hours": 0.0000336456298828125,
   "GPU_Hours": 0,
   "Runtime": 0.0033333333333333335,
   "App_Hours": 0.0033333333333333335,
   "JobId": "19763",
   "Queue": "local",
   "User": "amd_app",
   "App": "电子散热APP",
   "JobDescription": "电子散热APP",
   "JobName": "cubevnc",
   "Cluster": "aip",
   "CPU_Cost": 0.0016666666666666668,
   "Mem_Cost": 0,
   "GPU_Cost": 0,
   "App_Cost": 0,
   "StartDate": "2020/12/07",
   "Project": "default"
  },
  {
   "CPU_Hours": 0.15861111111111112,
   "Mem_GB_Hours": 0.03689857482910156,
   "GPU_Hours": 0,
   "Runtime": 0.15861111111111112,
   "App_Hours": 0.15861111111111112,
   "JobId": "24024",
   "Queue": "local",
   "User": "amd_app",
   "App": "ICESIM",
   "JobDescription": "ICESIM",
   "JobName": "cubevnc",
   "Cluster": "aip",
   "CPU_Cost": 0.07930555555555556,
   "Mem_Cost": 0,
   "GPU_Cost": 0,
   "App_Cost": 0,
   "StartDate": "2020/12/30",
   "Project": "default"
  },
  {
   "CPU_Hours": 0.7477945847233334,
   "Mem_GB_Hours": 0.42089834896389744,
   "GPU_Hours": 0,
   "Runtime": 0.3738972923616667,
   "App_Hours": 0.7477945847233334,
   "JobId": "20015",
   "Queue": "q_x86_expr_plus",
   "User": "amd_app",
   "App": "StarCCM1404",
   "JobDescription": "StarCCM1404",
   "JobName": "cubevnc",
   "Cluster": "aip",
   "CPU_Cost": 0.3738972923616667,
   "Mem_Cost": 0,
   "GPU_Cost": 0,
   "App_Cost": 0,
   "StartDate": "2020/12/08",
   "Project": "default"
  },
  {
   "CPU_Hours": 1.46,
   "Mem_GB_Hours": 0.001454711490207248,
   "GPU_Hours": 0,
   "Runtime": 0.020277777777777777,
   "App_Hours": 1.46,
   "JobId": "21930",
   "Queue": "q_x86_share",
   "User": "amd_app",
   "App": "Fluent",
   "JobDescription": "Fluent",
   "JobName": "cubevnc",
   "Cluster": "aip",
   "CPU_Cost": 0.73,
   "Mem_Cost": 0,
   "GPU_Cost": 0,
   "App_Cost": 0,
   "StartDate": "2020/12/19",
   "Project": "default"
  },
  {
   "CPU_Hours": 3.997940217391111,
   "Mem_GB_Hours": 0.03162921126424342,
   "GPU_Hours": 0,
   "Runtime": 0.4997425271738889,
   "App_Hours": 3.997940217391111,
   "JobId": "20805",
   "Queue": "q_x86_share",
   "User": "amd_app",
   "App": "ICESIM",
   "JobDescription": "ICESIM-RF101",
   "JobName": "/home/export/online3/amd_share/anaconda/bin/python3 /home/export/online3/amd_app/wxy/cas2foam/generate.py q_x86_share 8 100 20 /home/export/online3/amd_app/IcesimProject/RF101 RF101.cas",
   "Cluster": "aip",
   "CPU_Cost": 1.9989701086955556,
   "Mem_Cost": 0,
   "GPU_Cost": 0,
   "App_Cost": 0,
   "StartDate": "2020/12/14",
   "Project": "default"
  },
  {
   "CPU_Hours": 0.049173191899999996,
   "Mem_GB_Hours": 0.15914114668451423,
   "GPU_Hours": 0,
   "Runtime": 0.049173191899999996,
   "App_Hours": 0.049173191899999996,
   "JobId": "20126",
   "Queue": "local",
   "User": "amd_app",
   "App": "电子散热APP",
   "JobDescription": "电子散热APP",
   "JobName": "cubevnc",
   "Cluster": "aip",
   "CPU_Cost": 0.024586595949999998,
   "Mem_Cost": 0,
   "GPU_Cost": 0,
   "App_Cost": 0,
   "StartDate": "2020/12/09",
   "Project": "default"
  },
  {
   "CPU_Hours": 0.0225,
   "Mem_GB_Hours": 0.006420392990112304,
   "GPU_Hours": 0,
   "Runtime": 0.0225,
   "App_Hours": 0.0225,
   "JobId": "21544",
   "Queue": "local",
   "User": "amd_app",
   "App": "ICESIM",
   "JobDescription": "ICESIM",
   "JobName": "cubevnc",
   "Cluster": "aip",
   "CPU_Cost": 0.01125,
   "Mem_Cost": 0,
   "GPU_Cost": 0,
   "App_Cost": 0,
   "StartDate": "2020/12/18",
   "Project": "default"
  },
  {
   "CPU_Hours": 0.809756483211111,
   "Mem_GB_Hours": 0.18454494836196841,
   "GPU_Hours": 0.809756483211111,
   "Runtime": 0.809756483211111,
   "App_Hours": 0.809756483211111,
   "JobId": "23477",
   "Queue": "local",
   "User": "amd_app",
   "App": "TankSim",
   "JobDescription": "TankSim",
   "JobName": "cubevnc",
   "Cluster": "aip",
   "CPU_Cost": 0.4048782416055555,
   "Mem_Cost": 0,
   "GPU_Cost": 0.4048782416055555,
   "App_Cost": 0,
   "StartDate": "2020/12/28",
   "Project": "default"
  },
  {
   "CPU_Hours": 0.5222222222222223,
   "Mem_GB_Hours": 0.008945115407307943,
   "GPU_Hours": 0,
   "Runtime": 0.06527777777777778,
   "App_Hours": 0.5222222222222223,
   "JobId": "22645",
   "Queue": "q_x86_share",
   "User": "amd_app",
   "App": "ICESIM",
   "JobDescription": "ICESIM/RFtest",
   "JobName": "/home/export/online3/amd_share/anaconda/bin/python3 /home/export/online3/amd_app/wxy/cas2foam/generate.py q_x86_share 8 100 20 /home/export/base/nsccwuxi_amd/amd_app/online3/IcesimProject/RFtest RF01.cas",
   "Cluster": "aip",
   "CPU_Cost": 0.2611111111111111,
   "Mem_Cost": 0,
   "GPU_Cost": 0,
   "App_Cost": 0,
   "StartDate": "2020/12/23",
   "Project": "default"
  },
  {
   "CPU_Hours": 3.391285162302222,
   "Mem_GB_Hours": 0.029408603874923816,
   "GPU_Hours": 0,
   "Runtime": 0.4239106452877778,
   "App_Hours": 3.391285162302222,
   "JobId": "23815",
   "Queue": "q_x86_share",
   "User": "amd_app",
   "App": "ICESIM",
   "JobDescription": "ICESIM/111",
   "JobName": "/home/export/online3/amd_share/anaconda/bin/python3 /home/export/online3/amd_app/wxy/cas2foam/generate.py q_x86_share 8 100 20 /home/export/base/nsccwuxi_amd/amd_app/online3/IcesimProject/111 pcb200.cas",
   "Cluster": "aip",
   "CPU_Cost": 1.695642581151111,
   "Mem_Cost": 0,
   "GPU_Cost": 0,
   "App_Cost": 0,
   "StartDate": "2020/12/29",
   "Project": "default"
  },
  {
   "CPU_Hours": 11.680332534057777,
   "Mem_GB_Hours": 0.06159054670047356,
   "GPU_Hours": 0,
   "Runtime": 1.4600415667572222,
   "App_Hours": 11.680332534057777,
   "JobId": "20361",
   "Queue": "q_x86_share",
   "User": "amd_app",
   "App": "ICESIM",
   "JobDescription": "ICESIM-RF01",
   "JobName": "/home/export/online3/amd_share/anaconda/bin/python3 /home/export/online3/amd_app/wxy/cas2foam/generate.py q_x86_share 8 100 20 /home/export/online3/amd_app/IcesimProject/RF01 RF01.cas",
   "Cluster": "aip",
   "CPU_Cost": 5.840166267028889,
   "Mem_Cost": 0,
   "GPU_Cost": 0,
   "App_Cost": 0,
   "StartDate": "2020/12/10",
   "Project": "default"
  },
  {
   "CPU_Hours": 0.16029101075444444,
   "Mem_GB_Hours": 0.03743094465891514,
   "GPU_Hours": 0,
   "Runtime": 0.16029101075444444,
   "App_Hours": 0.16029101075444444,
   "JobId": "23776",
   "Queue": "local",
   "User": "amd_app",
   "App": "ICESIM",
   "JobDescription": "ICESIM",
   "JobName": "cubevnc",
   "Cluster": "aip",
   "CPU_Cost": 0.08014550537722222,
   "Mem_Cost": 0,
   "GPU_Cost": 0,
   "App_Cost": 0,
   "StartDate": "2020/12/29",
   "Project": "default"
  },
  {
   "CPU_Hours": 0.18666666666666665,
   "Mem_GB_Hours": 0.00020270453559027778,
   "GPU_Hours": 0,
   "Runtime": 0.015555555555555555,
   "App_Hours": 0.18666666666666665,
   "JobId": "20878",
   "Queue": "q_x86_cn_sim",
   "User": "amd_app",
   "App": "LS-DYNA",
   "JobDescription": "Batch-LS-DYNA",
   "JobName": "/home/export/online3/amd_share/shangruan/bin/dynayaml /home/export/base/nsccwuxi_amd/amd_app/WORK/dzj/dzj_online1/ls-dynatest/car01/000_yaris_dynamic_roof_crush_01.k single",
   "Cluster": "aip",
   "CPU_Cost": 0.09333333333333332,
   "Mem_Cost": 0,
   "GPU_Cost": 0,
   "App_Cost": 0,
   "StartDate": "2020/12/14",
   "Project": "default"
  },
  {
   "CPU_Hours": 0.003611111111111111,
   "Mem_GB_Hours": 0.0008463954925537109,
   "GPU_Hours": 0,
   "Runtime": 0.003611111111111111,
   "App_Hours": 0.003611111111111111,
   "JobId": "21810",
   "Queue": "local",
   "User": "amd_app",
   "App": "ICESIM",
   "JobDescription": "ICESIM",
   "JobName": "cubevnc",
   "Cluster": "aip",
   "CPU_Cost": 0.0018055555555555555,
   "Mem_Cost": 0,
   "GPU_Cost": 0,
   "App_Cost": 0,
   "StartDate": "2020/12/18",
   "Project": "default"
  },
  {
   "CPU_Hours": 0.11666666666666667,
   "Mem_GB_Hours": 0.0016852855682373048,
   "GPU_Hours": 0,
   "Runtime": 0.029166666666666667,
   "App_Hours": 0.11666666666666667,
   "JobId": "19796",
   "Queue": "q_x86_share",
   "User": "amd_app",
   "App": "ICESimulator",
   "JobDescription": "ss",
   "JobName": "/home/export/online3/amd_share/anaconda/bin/python3 /home/export/online3/amd_app/wxy/cas2foam/generate.py q_x86_share 4 100 20 /home/export/online3/amd_app/IcesimProject/ss ss.cas",
   "Cluster": "aip",
   "CPU_Cost": 0.058333333333333334,
   "Mem_Cost": 0,
   "GPU_Cost": 0,
   "App_Cost": 0,
   "StartDate": "2020/12/07",
   "Project": "default"
  },
  {
   "CPU_Hours": 0.08805555555555555,
   "Mem_GB_Hours": 0.33385324160257973,
   "GPU_Hours": 0,
   "Runtime": 0.08805555555555555,
   "App_Hours": 0.08805555555555555,
   "JobId": "21137",
   "Queue": "local",
   "User": "amd_app",
   "App": "ICESIM",
   "JobDescription": "ICESIM",
   "JobName": "cubevnc",
   "Cluster": "aip",
   "CPU_Cost": 0.04402777777777778,
   "Mem_Cost": 0,
   "GPU_Cost": 0,
   "App_Cost": 0,
   "StartDate": "2020/12/16",
   "Project": "default"
  },
  {
   "CPU_Hours": 0.007222222222222222,
   "Mem_GB_Hours": 0.00009565565321180555,
   "GPU_Hours": 0,
   "Runtime": 0.007222222222222222,
   "App_Hours": 0.007222222222222222,
   "JobId": "23687",
   "Queue": "q_x86_expr",
   "User": "amd_app",
   "App": "SWOF",
   "JobDescription": "SWOF_fluentMeshToFoam",
   "JobName": "swof_/home/export/base/nsccwuxi_amd/amd_app/WORK/wxy/icrpak_test/test-1/test-1_Mesh2324",
   "Cluster": "aip",
   "CPU_Cost": 0.003611111111111111,
   "Mem_Cost": 0,
   "GPU_Cost": 0,
   "App_Cost": 0,
   "StartDate": "2020/12/29",
   "Project": "default"
  },
  {
   "CPU_Hours": 0.62,
   "Mem_GB_Hours": 0.2610885906219482,
   "GPU_Hours": 0,
   "Runtime": 0.0775,
   "App_Hours": 0.62,
   "JobId": "21138",
   "Queue": "q_x86_share",
   "User": "amd_app",
   "App": "ICESIM",
   "JobDescription": "ICESIM-fenglengjx9.10.801_1009",
   "JobName": "/home/export/online3/amd_share/anaconda/bin/python3 /home/export/online3/amd_app/wxy/cas2foam/generate.py q_x86_share 8 100 20 /home/export/online3/amd_app/IcesimProject/fenglengjx9.10.801_1009 fenglengjx9.10.801_1009.cas",
   "Cluster": "aip",
   "CPU_Cost": 0.31,
   "Mem_Cost": 0,
   "GPU_Cost": 0,
   "App_Cost": 0,
   "StartDate": "2020/12/16",
   "Project": "default"
  },
  {
   "CPU_Hours": 0.9144749588311112,
   "Mem_GB_Hours": 0.04133539593198417,
   "GPU_Hours": 0,
   "Runtime": 0.2286187397077778,
   "App_Hours": 0.9144749588311112,
   "JobId": "24342",
   "Queue": "q_x86_share",
   "User": "amd_app",
   "App": "ICESIM",
   "JobDescription": "ICESIM/test444-7",
   "JobName": "/home/export/online3/amd_share/anaconda/bin/python3 /home/export/online3/amd_app/wxy/cas2foam/generate.py q_x86_share 4 50 10 /home/export/online3/amd_app/IcesimProject/test444-7 pcb200.cas",
   "Cluster": "aip",
   "CPU_Cost": 0.4572374794155556,
   "Mem_Cost": 0,
   "GPU_Cost": 0,
   "App_Cost": 0,
   "StartDate": "2020/12/31",
   "Project": "default"
  },
  {
   "CPU_Hours": 0.4622222222222222,
   "Mem_GB_Hours": 0.0033307562934027776,
   "GPU_Hours": 0,
   "Runtime": 0.057777777777777775,
   "App_Hours": 0.4622222222222222,
   "JobId": "22497",
   "Queue": "q_x86_share",
   "User": "amd_app",
   "App": "ICESIM",
   "JobDescription": "ICESIM/ss-1",
   "JobName": "/home/export/online3/amd_share/anaconda/bin/python3 /home/export/online3/amd_app/wxy/cas2foam/generate.py q_x86_share 8 100 20 /home/export/online3/amd_app/IcesimProject/ss-1 ss.cas",
   "Cluster": "aip",
   "CPU_Cost": 0.2311111111111111,
   "Mem_Cost": 0,
   "GPU_Cost": 0,
   "App_Cost": 0,
   "StartDate": "2020/12/22",
   "Project": "default"
  },
  {
   "CPU_Hours": 0.31946290733611116,
   "Mem_GB_Hours": 0.10019087583053268,
   "GPU_Hours": 0,
   "Runtime": 0.31946290733611116,
   "App_Hours": 0.31946290733611116,
   "JobId": "21293",
   "Queue": "local",
   "User": "amd_app",
   "App": "ICESIM",
   "JobDescription": "ICESIM",
   "JobName": "cubevnc",
   "Cluster": "aip",
   "CPU_Cost": 0.15973145366805558,
   "Mem_Cost": 0,
   "GPU_Cost": 0,
   "App_Cost": 0,
   "StartDate": "2020/12/17",
   "Project": "default"
  },
  {
   "CPU_Hours": 8.001988573759999,
   "Mem_GB_Hours": 5.49505566203607,
   "GPU_Hours": 8.001988573759999,
   "Runtime": 8.001988573759999,
   "App_Hours": 8.001988573759999,
   "JobId": "22486",
   "Queue": "local",
   "User": "amd_app",
   "App": "ParaView",
   "JobDescription": "ParaView",
   "JobName": "cubevnc",
   "Cluster": "aip",
   "CPU_Cost": 4.000994286879999,
   "Mem_Cost": 0,
   "GPU_Cost": 4.000994286879999,
   "App_Cost": 0,
   "StartDate": "2020/12/22",
   "Project": "default"
  },
  {
   "CPU_Hours": 41.40116573703334,
   "Mem_GB_Hours": 0.039055146475129573,
   "GPU_Hours": 0,
   "Runtime": 0.3450097144752778,
   "App_Hours": 41.40116573703334,
   "JobId": "21769",
   "Queue": "q_x86_share",
   "User": "amd_app",
   "App": "Fluent",
   "JobDescription": "Fluent",
   "JobName": "cubevnc",
   "Cluster": "aip",
   "CPU_Cost": 20.70058286851667,
   "Mem_Cost": 0,
   "GPU_Cost": 0,
   "App_Cost": 0,
   "StartDate": "2020/12/18",
   "Project": "default"
  },
  {
   "CPU_Hours": 0.42500000000000004,
   "Mem_GB_Hours": 0.003584413528442383,
   "GPU_Hours": 0,
   "Runtime": 0.0425,
   "App_Hours": 0.42500000000000004,
   "JobId": "19925",
   "Queue": "q_x86_cn_sim",
   "User": "amd_app",
   "App": "AnsysAPDL",
   "JobDescription": "AnsysAPDL",
   "JobName": "cubevnc",
   "Cluster": "aip",
   "CPU_Cost": 0.21250000000000002,
   "Mem_Cost": 0,
   "GPU_Cost": 0,
   "App_Cost": 0,
   "StartDate": "2020/12/08",
   "Project": "default"
  },
  {
   "CPU_Hours": 0.03888888888888889,
   "Mem_GB_Hours": 0.011584303114149305,
   "GPU_Hours": 0,
   "Runtime": 0.03888888888888889,
   "App_Hours": 0.03888888888888889,
   "JobId": "21821",
   "Queue": "local",
   "User": "amd_app",
   "App": "ICESIM",
   "JobDescription": "ICESIM",
   "JobName": "cubevnc",
   "Cluster": "aip",
   "CPU_Cost": 0.019444444444444445,
   "Mem_Cost": 0,
   "GPU_Cost": 0,
   "App_Cost": 0,
   "StartDate": "2020/12/18",
   "Project": "default"
  },
  {
   "CPU_Hours": 40.01225259776389,
   "Mem_GB_Hours": 0.3173427568470499,
   "GPU_Hours": 0,
   "Runtime": 4.001225259776389,
   "App_Hours": 40.01225259776389,
   "JobId": "19926",
   "Queue": "q_x86_cn_sim",
   "User": "amd_app",
   "App": "AnsysAPDL",
   "JobDescription": "AnsysAPDL",
   "JobName": "cubevnc",
   "Cluster": "aip",
   "CPU_Cost": 20.006126298881945,
   "Mem_Cost": 0,
   "GPU_Cost": 0,
   "App_Cost": 0,
   "StartDate": "2020/12/08",
   "Project": "default"
  },
  {
   "CPU_Hours": 1.986734812717778,
   "Mem_GB_Hours": 0.008239485672825423,
   "GPU_Hours": 0,
   "Runtime": 0.993367406358889,
   "App_Hours": 1.986734812717778,
   "JobId": "22567",
   "Queue": "q_x86_expr",
   "User": "amd_app",
   "App": "Fluent",
   "JobDescription": "fenglengjx9.10.801.uns_in",
   "JobName": "/home/export/online3/amd_app/Zhouhl/Project/ElecThermSim/icepak/tutorial/Ch3.bak/9.10/fenglengjx9.10.8/fenglengjx9.10.801.uns_in",
   "Cluster": "aip",
   "CPU_Cost": 0.993367406358889,
   "Mem_Cost": 0,
   "GPU_Cost": 0,
   "App_Cost": 0,
   "StartDate": "2020/12/23",
   "Project": "default"
  },
  {
   "CPU_Hours": 0.02277777777777778,
   "Mem_GB_Hours": 0.07029010348849826,
   "GPU_Hours": 0,
   "Runtime": 0.02277777777777778,
   "App_Hours": 0.02277777777777778,
   "JobId": "22193",
   "Queue": "local",
   "User": "amd_app",
   "App": "ICESIM",
   "JobDescription": "ICESIM",
   "JobName": "cubevnc",
   "Cluster": "aip",
   "CPU_Cost": 0.01138888888888889,
   "Mem_Cost": 0,
   "GPU_Cost": 0,
   "App_Cost": 0,
   "StartDate": "2020/12/21",
   "Project": "default"
  },
  {
   "CPU_Hours": 4.001252513620833,
   "Mem_GB_Hours": 2.016630290304951,
   "GPU_Hours": 4.001252513620833,
   "Runtime": 4.001252513620833,
   "App_Hours": 4.001252513620833,
   "JobId": "20478",
   "Queue": "local",
   "User": "amd_app",
   "App": "Abaqus",
   "JobDescription": "Abaqus",
   "JobName": "cubevnc",
   "Cluster": "aip",
   "CPU_Cost": 2.0006262568104165,
   "Mem_Cost": 0,
   "GPU_Cost": 2.0006262568104165,
   "App_Cost": 0,
   "StartDate": "2020/12/11",
   "Project": "default"
  },
  {
   "CPU_Hours": 0.15167558683138888,
   "Mem_GB_Hours": 0.04445164689177388,
   "GPU_Hours": 0,
   "Runtime": 0.15167558683138888,
   "App_Hours": 0.15167558683138888,
   "JobId": "23025",
   "Queue": "local",
   "User": "amd_app",
   "App": "ICESIM",
   "JobDescription": "ICESIM",
   "JobName": "cubevnc",
   "Cluster": "aip",
   "CPU_Cost": 0.07583779341569444,
   "Mem_Cost": 0,
   "GPU_Cost": 0,
   "App_Cost": 0,
   "StartDate": "2020/12/25",
   "Project": "default"
  },
  {
   "CPU_Hours": 0.8778283776177778,
   "Mem_GB_Hours": 0.018286425429170534,
   "GPU_Hours": 0,
   "Runtime": 0.10972854720222222,
   "App_Hours": 0.8778283776177778,
   "JobId": "19800",
   "Queue": "q_x86_share",
   "User": "amd_app",
   "App": "ICESimulator",
   "JobDescription": "pcb200",
   "JobName": "/home/export/online3/amd_share/anaconda/bin/python3 /home/export/online3/amd_app/wxy/cas2foam/generate.py q_x86_share 8 100 20 /home/export/online3/amd_app/IcesimProject/pcb200 pcb200.cas",
   "Cluster": "aip",
   "CPU_Cost": 0.4389141888088889,
   "Mem_Cost": 0,
   "GPU_Cost": 0,
   "App_Cost": 0,
   "StartDate": "2020/12/07",
   "Project": "default"
  },
  {
   "CPU_Hours": 0.04722222222222222,
   "Mem_GB_Hours": 0.0005610413021511502,
   "GPU_Hours": 0,
   "Runtime": 0.02361111111111111,
   "App_Hours": 0.04722222222222222,
   "JobId": "23788",
   "Queue": "q_x86_share",
   "User": "amd_app",
   "App": "ICESIM",
   "JobDescription": "ICESIM/testqbjbbbnb",
   "JobName": "/home/export/online3/amd_share/anaconda/bin/python3 /home/export/online3/amd_app/wxy/cas2foam/generate.py q_x86_share 2 100 20 /home/export/base/nsccwuxi_amd/amd_app/online3/IcesimProject/testqbjbbbnb pcb200.cas",
   "Cluster": "aip",
   "CPU_Cost": 0.02361111111111111,
   "Mem_Cost": 0,
   "GPU_Cost": 0,
   "App_Cost": 0,
   "StartDate": "2020/12/29",
   "Project": "default"
  },
  {
   "CPU_Hours": 0.12584292225305554,
   "Mem_GB_Hours": 0.03740777857582258,
   "GPU_Hours": 0,
   "Runtime": 0.12584292225305554,
   "App_Hours": 0.12584292225305554,
   "JobId": "21312",
   "Queue": "local",
   "User": "amd_app",
   "App": "ICESIM",
   "JobDescription": "ICESIM",
   "JobName": "cubevnc",
   "Cluster": "aip",
   "CPU_Cost": 0.06292146112652777,
   "Mem_Cost": 0,
   "GPU_Cost": 0,
   "App_Cost": 0,
   "StartDate": "2020/12/17",
   "Project": "default"
  },
  {
   "CPU_Hours": 139.61186685804998,
   "Mem_GB_Hours": 1.3806916807884115,
   "GPU_Hours": 0,
   "Runtime": 11.634322238170835,
   "App_Hours": 139.61186685804998,
   "JobId": "22090",
   "Queue": "q_x86_share",
   "User": "amd_app",
   "App": "Fluent",
   "JobDescription": "Fluent",
   "JobName": "cubevnc",
   "Cluster": "aip",
   "CPU_Cost": 69.80593342902499,
   "Mem_Cost": 0,
   "GPU_Cost": 0,
   "App_Cost": 0,
   "StartDate": "2020/12/20",
   "Project": "default"
  },
  {
   "CPU_Hours": 0,
   "Mem_GB_Hours": 0,
   "GPU_Hours": 0,
   "Runtime": 0,
   "App_Hours": 0,
   "JobId": "19293",
   "Queue": "local",
   "User": "amd_app",
   "App": "电子散热APP",
   "JobDescription": "电子散热APP",
   "JobName": "cubevnc",
   "Cluster": "aip",
   "CPU_Cost": 0,
   "Mem_Cost": 0,
   "GPU_Cost": 0,
   "App_Cost": 0,
   "StartDate": "2020/12/03",
   "Project": "default"
  },
  {
   "CPU_Hours": 0.09723323934583333,
   "Mem_GB_Hours": 0.34076024601540195,
   "GPU_Hours": 0,
   "Runtime": 0.09723323934583333,
   "App_Hours": 0.09723323934583333,
   "JobId": "21171",
   "Queue": "local",
   "User": "amd_app",
   "App": "ICESIM",
   "JobDescription": "ICESIM",
   "JobName": "cubevnc",
   "Cluster": "aip",
   "CPU_Cost": 0.04861661967291667,
   "Mem_Cost": 0,
   "GPU_Cost": 0,
   "App_Cost": 0,
   "StartDate": "2020/12/16",
   "Project": "default"
  },
  {
   "CPU_Hours": 37.184270492875,
   "Mem_GB_Hours": 0.3010194390921881,
   "GPU_Hours": 0,
   "Runtime": 3.7184270492875005,
   "App_Hours": 37.184270492875,
   "JobId": "20073",
   "Queue": "q_x86_cn_sim",
   "User": "amd_app",
   "App": "AnsysAPDL",
   "JobDescription": "AnsysAPDL",
   "JobName": "cubevnc",
   "Cluster": "aip",
   "CPU_Cost": 18.5921352464375,
   "Mem_Cost": 0,
   "GPU_Cost": 0,
   "App_Cost": 0,
   "StartDate": "2020/12/09",
   "Project": "default"
  },
  {
   "CPU_Hours": 0.003611111111111111,
   "Mem_GB_Hours": 0.00003643565707736545,
   "GPU_Hours": 0,
   "Runtime": 0.003611111111111111,
   "App_Hours": 0.003611111111111111,
   "JobId": "19764",
   "Queue": "local",
   "User": "amd_app",
   "App": "电子散热APP",
   "JobDescription": "电子散热APP",
   "JobName": "cubevnc",
   "Cluster": "aip",
   "CPU_Cost": 0.0018055555555555555,
   "Mem_Cost": 0,
   "GPU_Cost": 0,
   "App_Cost": 0,
   "StartDate": "2020/12/07",
   "Project": "default"
  },
  {
   "CPU_Hours": 0.21138888888888888,
   "Mem_GB_Hours": 0.8076990233527289,
   "GPU_Hours": 0,
   "Runtime": 0.21138888888888888,
   "App_Hours": 0.21138888888888888,
   "JobId": "20328",
   "Queue": "local",
   "User": "amd_app",
   "App": "ICESIM",
   "JobDescription": "ICESIM",
   "JobName": "cubevnc",
   "Cluster": "aip",
   "CPU_Cost": 0.10569444444444444,
   "Mem_Cost": 0,
   "GPU_Cost": 0,
   "App_Cost": 0,
   "StartDate": "2020/12/10",
   "Project": "default"
  },
  {
   "CPU_Hours": 0.23,
   "Mem_GB_Hours": 0.0031210613250732423,
   "GPU_Hours": 0,
   "Runtime": 0.0575,
   "App_Hours": 0.23,
   "JobId": "21796",
   "Queue": "q_x86_share",
   "User": "amd_app",
   "App": "ICESIM",
   "JobDescription": "ICESIM-test5",
   "JobName": "/home/export/online3/amd_share/anaconda/bin/python3 /home/export/online3/amd_app/wxy/cas2foam/generate.py q_x86_share 4 100 20 /home/export/base/nsccwuxi_amd/amd_app/online3/IcesimProject/test5 ss.cas",
   "Cluster": "aip",
   "CPU_Cost": 0.115,
   "Mem_Cost": 0,
   "GPU_Cost": 0,
   "App_Cost": 0,
   "StartDate": "2020/12/18",
   "Project": "default"
  },
  {
   "CPU_Hours": 0.010277777777777778,
   "Mem_GB_Hours": 0.002932928933037652,
   "GPU_Hours": 0,
   "Runtime": 0.010277777777777778,
   "App_Hours": 0.010277777777777778,
   "JobId": "19928",
   "Queue": "local",
   "User": "amd_app",
   "App": "电子散热APP",
   "JobDescription": "电子散热APP",
   "JobName": "cubevnc",
   "Cluster": "aip",
   "CPU_Cost": 0.005138888888888889,
   "Mem_Cost": 0,
   "GPU_Cost": 0,
   "App_Cost": 0,
   "StartDate": "2020/12/08",
   "Project": "default"
  },
  {
   "CPU_Hours": 127.98579277084,
   "Mem_GB_Hours": 0.19174431876828765,
   "GPU_Hours": 0,
   "Runtime": 1.7775804551505554,
   "App_Hours": 127.98579277084,
   "JobId": "23401",
   "Queue": "q_x86_share",
   "User": "amd_app",
   "App": "Fluent",
   "JobDescription": "Fluent",
   "JobName": "cubevnc",
   "Cluster": "aip",
   "CPU_Cost": 63.99289638542,
   "Mem_Cost": 0,
   "GPU_Cost": 0,
   "App_Cost": 0,
   "StartDate": "2020/12/27",
   "Project": "default"
  },
  {
   "CPU_Hours": 0.015555555555555555,
   "Mem_GB_Hours": 0.0010907830132378471,
   "GPU_Hours": 0,
   "Runtime": 0.015555555555555555,
   "App_Hours": 0.015555555555555555,
   "JobId": "20625",
   "Queue": "q_x86_share",
   "User": "amd_app",
   "App": "Fluent",
   "JobDescription": "Fluent",
   "JobName": "cubevnc",
   "Cluster": "aip",
   "CPU_Cost": 0.0077777777777777776,
   "Mem_Cost": 0,
   "GPU_Cost": 0,
   "App_Cost": 0,
   "StartDate": "2020/12/12",
   "Project": "default"
  },
  {
   "CPU_Hours": 0.1897222222222222,
   "Mem_GB_Hours": 0.6133773348066541,
   "GPU_Hours": 0,
   "Runtime": 0.1897222222222222,
   "App_Hours": 0.1897222222222222,
   "JobId": "20125",
   "Queue": "local",
   "User": "amd_app",
   "App": "电子散热APP",
   "JobDescription": "电子散热APP",
   "JobName": "cubevnc",
   "Cluster": "aip",
   "CPU_Cost": 0.0948611111111111,
   "Mem_Cost": 0,
   "GPU_Cost": 0,
   "App_Cost": 0,
   "StartDate": "2020/12/09",
   "Project": "default"
  },
  {
   "CPU_Hours": 0.3264095807208333,
   "Mem_GB_Hours": 0.7801916143593177,
   "GPU_Hours": 0,
   "Runtime": 0.3264095807208333,
   "App_Hours": 0.3264095807208333,
   "JobId": "24080",
   "Queue": "local",
   "User": "amd_app",
   "App": "ICESIM",
   "JobDescription": "ICESIM",
   "JobName": "cubevnc",
   "Cluster": "aip",
   "CPU_Cost": 0.16320479036041666,
   "Mem_Cost": 0,
   "GPU_Cost": 0,
   "App_Cost": 0,
   "StartDate": "2020/12/30",
   "Project": "default"
  },
  {
   "CPU_Hours": 0.11362121781472222,
   "Mem_GB_Hours": 0.10515578438200927,
   "GPU_Hours": 0.11362121781472222,
[...]
   "Mem_GB_Hours": 0.10580198578827918,
   "GPU_Hours": 0,
   "Runtime": 3.395127852176666,
   "App_Hours": 13.580511408706665,
   "JobId": "23005",
   "Queue": "q_x86_share",
   "User": "amd_app",
   "App": "ICESIM",
   "JobDescription": "ICESIM/pcb200-3",
   "JobName": "/home/export/online3/amd_share/anaconda/bin/python3 /home/export/online3/amd_app/wxy/cas2foam/generate.py q_x86_share 4 1000 20 /home/export/online3/amd_app/IcesimProject/pcb200-3 pcb200.cas",
   "Cluster": "aip",
   "CPU_Cost": 6.790255704353332,
   "Mem_Cost": 0,
   "GPU_Cost": 0,
   "App_Cost": 0,
   "StartDate": "2020/12/25",
   "Project": "default"
  },
  {
   "CPU_Hours": 0.18279912815777777,
   "Mem_GB_Hours": 0.003734737427663519,
   "GPU_Hours": 0,
   "Runtime": 0.09139956407888888,
   "App_Hours": 0.18279912815777777,
   "JobId": "24354",
   "Queue": "q_x86_share",
   "User": "amd_app",
   "App": "ICESIM",
   "JobDescription": "ICESIM/test444-8",
   "JobName": "/home/export/online3/amd_share/anaconda/bin/python3 /home/export/online3/amd_app/wxy/cas2foam/generate.py q_x86_share 2 100 20 /home/export/online3/amd_app/IcesimProject/test444-8 ss.cas",
   "Cluster": "aip",
   "CPU_Cost": 0.09139956407888888,
   "Mem_Cost": 0,
   "GPU_Cost": 0,
   "App_Cost": 0,
   "StartDate": "2020/12/31",
   "Project": "default"
  },
  {
   "CPU_Hours": 0.2011111111111111,
   "Mem_GB_Hours": 0.002670546637641059,
   "GPU_Hours": 0,
   "Runtime": 0.050277777777777775,
   "App_Hours": 0.2011111111111111,
   "JobId": "20351",
   "Queue": "q_x86_share",
   "User": "amd_app",
   "App": "ICESIM",
   "JobDescription": "ICESIM-ss",
   "JobName": "/home/export/online3/amd_share/anaconda/bin/python3 /home/export/online3/amd_app/wxy/cas2foam/generate.py q_x86_share 4 100 20 /home/export/online3/amd_app/IcesimProject/ss ss.cas",
   "Cluster": "aip",
   "CPU_Cost": 0.10055555555555555,
   "Mem_Cost": 0,
   "GPU_Cost": 0,
   "App_Cost": 0,
   "StartDate": "2020/12/10",
   "Project": "default"
  },
  {
   "CPU_Hours": 0.09556418762722223,
   "Mem_GB_Hours": 0.02822989548695882,
   "GPU_Hours": 0,
   "Runtime": 0.09556418762722223,
   "App_Hours": 0.09556418762722223,
   "JobId": "20072",
   "Queue": "local",
   "User": "amd_app",
   "App": "电子散热APP",
   "JobDescription": "电子散热APP",
   "JobName": "cubevnc",
   "Cluster": "aip",
   "CPU_Cost": 0.047782093813611114,
   "Mem_Cost": 0,
   "GPU_Cost": 0,
   "App_Cost": 0,
   "StartDate": "2020/12/09",
   "Project": "default"
  },
  {
   "CPU_Hours": 0.0075,
   "Mem_GB_Hours": 0.00239750862121582,
   "GPU_Hours": 0.0075,
   "Runtime": 0.0075,
   "App_Hours": 0.0075,
   "JobId": "21771",
   "Queue": "local",
   "User": "amd_app",
   "App": "FluentMeshing",
   "JobDescription": "FluentMeshing",
   "JobName": "cubevnc",
   "Cluster": "aip",
   "CPU_Cost": 0.00375,
   "Mem_Cost": 0,
   "GPU_Cost": 0.00375,
   "App_Cost": 0,
   "StartDate": "2020/12/18",
   "Project": "default"
  },
  {
   "CPU_Hours": 0.056666666666666664,
   "Mem_GB_Hours": 0.0003648885091145833,
   "GPU_Hours": 0,
   "Runtime": 0.028333333333333332,
   "App_Hours": 0.056666666666666664,
   "JobId": "22172",
   "Queue": "q_x86_share",
   "User": "amd_app",
   "App": "Abaqus",
   "JobDescription": "Job-110146-Model-1",
   "JobName": "Job-110146",
   "Cluster": "aip",
   "CPU_Cost": 0.028333333333333332,
   "Mem_Cost": 0,
   "GPU_Cost": 0,
   "App_Cost": 0,
   "StartDate": "2020/12/21",
   "Project": "default"
  },
  {
   "CPU_Hours": 0.015,
   "Mem_GB_Hours": 0.00019872665405273437,
   "GPU_Hours": 0,
   "Runtime": 0.015,
   "App_Hours": 0.015,
   "JobId": "23692",
   "Queue": "q_x86_expr",
   "User": "amd_app",
   "App": "SWOF",
   "JobDescription": "SWOF_checkMesh",
   "JobName": "swof_/home/export/base/nsccwuxi_amd/amd_app/WORK/wxy/icrpak_test/test-1_Check21562",
   "Cluster": "aip",
   "CPU_Cost": 0.0075,
   "Mem_Cost": 0,
   "GPU_Cost": 0,
   "App_Cost": 0,
   "StartDate": "2020/12/29",
   "Project": "default"
  },
  {
   "CPU_Hours": 0.8958792957766667,
   "Mem_GB_Hours": 3.4022951615736936,
   "GPU_Hours": 0,
   "Runtime": 0.8958792957766667,
   "App_Hours": 0.8958792957766667,
   "JobId": "21139",
   "Queue": "local",
   "User": "amd_app",
   "App": "ICESIM",
   "JobDescription": "ICESIM",
   "JobName": "cubevnc",
   "Cluster": "aip",
   "CPU_Cost": 0.44793964788833335,
   "Mem_Cost": 0,
   "GPU_Cost": 0,
   "App_Cost": 0,
   "StartDate": "2020/12/16",
   "Project": "default"
  },
  {
   "CPU_Hours": 8.001978670829443,
   "Mem_GB_Hours": 51.12895416194045,
   "GPU_Hours": 8.001978670829443,
   "Runtime": 8.001978670829443,
   "App_Hours": 8.001978670829443,
   "JobId": "21037",
   "Queue": "local",
   "User": "amd_app",
   "App": "ParaView",
   "JobDescription": "ParaView",
   "JobName": "cubevnc",
   "Cluster": "aip",
   "CPU_Cost": 4.0009893354147215,
   "Mem_Cost": 0,
   "GPU_Cost": 4.0009893354147215,
   "App_Cost": 0,
   "StartDate": "2020/12/15",
   "Project": "default"
  },
  {
   "CPU_Hours": 0.0008333333333333334,
   "Mem_GB_Hours": 0.00001067797342936198,
   "GPU_Hours": 0.0008333333333333334,
   "Runtime": 0.0008333333333333334,
   "App_Hours": 0.0008333333333333334,
   "JobId": "21646",
   "Queue": "local",
   "User": "amd_app",
   "App": "Abaqus614",
   "JobDescription": "Abaqus614",
   "JobName": "cubevnc",
   "Cluster": "aip",
   "CPU_Cost": 0.0004166666666666667,
   "Mem_Cost": 0,
   "GPU_Cost": 0.0004166666666666667,
   "App_Cost": 0,
   "StartDate": "2020/12/18",
   "Project": "default"
  },
  {
   "CPU_Hours": 0.06027777777777778,
   "Mem_GB_Hours": 0.0006081951989067926,
   "GPU_Hours": 0,
   "Runtime": 0.06027777777777778,
   "App_Hours": 0.06027777777777778,
   "JobId": "19304",
   "Queue": "local",
   "User": "amd_app",
   "App": "电子散热APP",
   "JobDescription": "电子散热APP",
   "JobName": "cubevnc",
   "Cluster": "aip",
   "CPU_Cost": 0.03013888888888889,
   "Mem_Cost": 0,
   "GPU_Cost": 0,
   "App_Cost": 0,
   "StartDate": "2020/12/03",
   "Project": "default"
  },
  {
   "CPU_Hours": 1.8667168735163888,
   "Mem_GB_Hours": 0.4010286872020228,
   "GPU_Hours": 1.8667168735163888,
   "Runtime": 1.8667168735163888,
   "App_Hours": 1.8667168735163888,
   "JobId": "20005",
   "Queue": "local",
   "User": "amd_app",
   "App": "ICEPAK",
   "JobDescription": "ICEPAK",
   "JobName": "cubevnc",
   "Cluster": "aip",
   "CPU_Cost": 0.9333584367581944,
   "Mem_Cost": 0,
   "GPU_Cost": 0.9333584367581944,
   "App_Cost": 0,
   "StartDate": "2020/12/08",
   "Project": "default"
  },
  {
   "CPU_Hours": 0.0022222222222222222,
   "Mem_GB_Hours": 0.0000036440955268012153,
   "GPU_Hours": 0,
   "Runtime": 0.0002777777777777778,
   "App_Hours": 0.0022222222222222222,
   "JobId": "22239",
   "Queue": "q_x86_share",
   "User": "amd_app",
   "App": "ICESIM",
   "JobDescription": "ICESIM/pcb200-1-1-1",
   "JobName": "/home/export/online3/amd_share/anaconda/bin/python3 /home/export/online3/amd_app/wxy/cas2foam/generate.py q_x86_share 8 100 20 /home/export/online3/amd_app/IcesimProject/pcb200-1-1-1 pcb200.cas",
   "Cluster": "aip",
   "CPU_Cost": 0.0011111111111111111,
   "Mem_Cost": 0,
   "GPU_Cost": 0,
   "App_Cost": 0,
   "StartDate": "2020/12/21",
   "Project": "default"
  },
  {
   "CPU_Hours": 334.9869104732601,
   "Mem_GB_Hours": 1.5382228731129,
   "GPU_Hours": 0,
   "Runtime": 13.957787936385833,
   "App_Hours": 334.9869104732601,
   "JobId": "23400",
   "Queue": "q_x86_share",
   "User": "amd_app",
   "App": "Fluent",
   "JobDescription": "Fluent",
   "JobName": "cubevnc",
   "Cluster": "aip",
   "CPU_Cost": 167.49345523663004,
   "Mem_Cost": 0,
   "GPU_Cost": 0,
   "App_Cost": 0,
   "StartDate": "2020/12/27",
   "Project": "default"
  },
  {
   "CPU_Hours": 18.426530845828882,
   "Mem_GB_Hours": 70.42419606984416,
   "GPU_Hours": 0,
   "Runtime": 18.426530845828882,
   "App_Hours": 18.426530845828882,
   "JobId": "20356",
   "Queue": "local",
   "User": "amd_app",
   "App": "ICESIM",
   "JobDescription": "ICESIM",
   "JobName": "cubevnc",
   "Cluster": "aip",
   "CPU_Cost": 9.213265422914441,
   "Mem_Cost": 0,
   "GPU_Cost": 0,
   "App_Cost": 0,
   "StartDate": "2020/12/10",
   "Project": "default"
  },
  {
   "CPU_Hours": 0.19555555555555557,
   "Mem_GB_Hours": 0.0001575893825954861,
   "GPU_Hours": 0,
   "Runtime": 0.012222222222222223,
   "App_Hours": 0.19555555555555557,
   "JobId": "22170",
   "Queue": "q_x86_share",
   "User": "amd_app",
   "App": "Abaqus",
   "JobDescription": "Job-105843-Model-1",
   "JobName": "Job-105843",
   "Cluster": "aip",
   "CPU_Cost": 0.09777777777777778,
   "Mem_Cost": 0,
   "GPU_Cost": 0,
   "App_Cost": 0,
   "StartDate": "2020/12/21",
   "Project": "default"
  },
  {
   "CPU_Hours": 0.8999999999999999,
   "Mem_GB_Hours": 0.0006160354614257812,
   "GPU_Hours": 0,
   "Runtime": 0.0075,
   "App_Hours": 0.8999999999999999,
   "JobId": "21935",
   "Queue": "q_x86_share",
   "User": "amd_app",
   "App": "Fluent",
   "JobDescription": "Fluent",
   "JobName": "cubevnc",
   "Cluster": "aip",
   "CPU_Cost": 0.44999999999999996,
   "Mem_Cost": 0,
   "GPU_Cost": 0,
   "App_Cost": 0,
   "StartDate": "2020/12/19",
   "Project": "default"
  },
  {
   "CPU_Hours": 0.22,
   "Mem_GB_Hours": 0.00019047101338704427,
   "GPU_Hours": 0,
   "Runtime": 0.009166666666666667,
   "App_Hours": 0.22,
   "JobId": "21975",
   "Queue": "q_x86_share",
   "User": "amd_app",
   "App": "CFX",
   "JobDescription": "Batch-CFX",
   "JobName": "/home/export/online3/amd_share/shangruan/bin/cfxyaml /home/export/base/nsccwuxi_amd/amd_app/WORK/Zhouhl/Project/SimGO/CFX/EX05/parallel24/EX05.def no",
   "Cluster": "aip",
   "CPU_Cost": 0.11,
   "Mem_Cost": 0,
   "GPU_Cost": 0,
   "App_Cost": 0,
   "StartDate": "2020/12/19",
   "Project": "default"
  },
  {
   "CPU_Hours": 0.11445393379555556,
   "Mem_GB_Hours": 0.04853111436238064,
   "GPU_Hours": 0,
   "Runtime": 0.05722696689777778,
   "App_Hours": 0.11445393379555556,
   "JobId": "20012",
   "Queue": "q_x86_share_plus",
   "User": "amd_app",
   "App": "StarCCM",
   "JobDescription": "StarCCM",
   "JobName": "cubevnc",
   "Cluster": "aip",
   "CPU_Cost": 0.05722696689777778,
   "Mem_Cost": 0,
   "GPU_Cost": 0,
   "App_Cost": 0,
   "StartDate": "2020/12/08",
   "Project": "default"
  },
  {
   "CPU_Hours": 3.353967531716945,
   "Mem_GB_Hours": 3.555256903729275,
   "GPU_Hours": 3.353967531716945,
   "Runtime": 3.353967531716945,
   "App_Hours": 3.353967531716945,
   "JobId": "20076",
   "Queue": "local",
   "User": "amd_app",
   "App": "Hypermesh",
   "JobDescription": "Hypermesh",
   "JobName": "cubevnc",
   "Cluster": "aip",
   "CPU_Cost": 1.6769837658584725,
   "Mem_Cost": 0,
   "GPU_Cost": 1.6769837658584725,
   "App_Cost": 0,
   "StartDate": "2020/12/09",
   "Project": "default"
  },
  {
   "CPU_Hours": 48.48927821447001,
   "Mem_GB_Hours": 230.1267701169464,
   "GPU_Hours": 0,
   "Runtime": 48.48927821447001,
   "App_Hours": 48.48927821447001,
   "JobId": "21823",
   "Queue": "local",
   "User": "amd_app",
   "App": "ICESIM",
   "JobDescription": "ICESIM",
   "JobName": "cubevnc",
   "Cluster": "aip",
   "CPU_Cost": 24.244639107235006,
   "Mem_Cost": 0,
   "GPU_Cost": 0,
   "App_Cost": 0,
   "StartDate": "2020/12/18",
   "Project": "default"
  },
  {
   "CPU_Hours": 0.21777777777777776,
   "Mem_GB_Hours": 2.5305119154188365,
   "GPU_Hours": 0,
   "Runtime": 0.21777777777777776,
   "App_Hours": 0.21777777777777776,
   "JobId": "21360",
   "Queue": "local",
   "User": "amd_app",
   "App": "ICESIM",
   "JobDescription": "ICESIM",
   "JobName": "cubevnc",
   "Cluster": "aip",
   "CPU_Cost": 0.10888888888888888,
   "Mem_Cost": 0,
   "GPU_Cost": 0,
   "App_Cost": 0,
   "StartDate": "2020/12/17",
   "Project": "default"
  },
  {
   "CPU_Hours": 1.4333731749944443,
   "Mem_GB_Hours": 0.0376954540289366,
   "GPU_Hours": 0,
   "Runtime": 0.35834329374861107,
   "App_Hours": 1.4333731749944443,
   "JobId": "23516",
   "Queue": "q_x86_share",
   "User": "amd_app",
   "App": "ICESIM",
   "JobDescription": "ICESIM/test",
   "JobName": "/home/export/online3/amd_share/anaconda/bin/python3 /home/export/online3/amd_app/wxy/cas2foam/generate.py q_x86_share 4 100 20 /home/export/base/nsccwuxi_amd/amd_app/online3/IcesimProject/test pcb200.cas",
   "Cluster": "aip",
   "CPU_Cost": 0.7166865874972221,
   "Mem_Cost": 0,
   "GPU_Cost": 0,
   "App_Cost": 0,
   "StartDate": "2020/12/28",
   "Project": "default"
  },
  {
   "CPU_Hours": 0.0011111111111111111,
   "Mem_GB_Hours": 0.000014237297905815972,
   "GPU_Hours": 0.0011111111111111111,
   "Runtime": 0.0011111111111111111,
   "App_Hours": 0.0011111111111111111,
   "JobId": "21764",
   "Queue": "local",
   "User": "amd_app",
   "App": "Abaqus614",
   "JobDescription": "Abaqus614",
   "JobName": "cubevnc",
   "Cluster": "aip",
   "CPU_Cost": 0.0005555555555555556,
   "Mem_Cost": 0,
   "GPU_Cost": 0.0005555555555555556,
   "App_Cost": 0,
   "StartDate": "2020/12/18",
   "Project": "default"
  },
  {
   "CPU_Hours": 0.6430730851383334,
   "Mem_GB_Hours": 0.2748222820455514,
   "GPU_Hours": 0.6430730851383334,
   "Runtime": 0.6430730851383334,
   "App_Hours": 0.6430730851383334,
   "JobId": "20643",
   "Queue": "local",
   "User": "amd_app",
   "App": "ICEPAK",
   "JobDescription": "jixaing",
   "JobName": "cubevnc",
   "Cluster": "aip",
   "CPU_Cost": 0.3215365425691667,
   "Mem_Cost": 0,
   "GPU_Cost": 0.3215365425691667,
   "App_Cost": 0,
   "StartDate": "2020/12/12",
   "Project": "default"
  },
  {
   "CPU_Hours": 0.09361785375638888,
   "Mem_GB_Hours": 0.026891777060355525,
   "GPU_Hours": 0,
   "Runtime": 0.09361785375638888,
   "App_Hours": 0.09361785375638888,
   "JobId": "20215",
   "Queue": "local",
   "User": "amd_app",
   "App": "电子散热APP",
   "JobDescription": "电子散热APP",
   "JobName": "cubevnc",
   "Cluster": "aip",
   "CPU_Cost": 0.04680892687819444,
   "Mem_Cost": 0,
   "GPU_Cost": 0,
   "App_Cost": 0,
   "StartDate": "2020/12/10",
   "Project": "default"
  },
  {
   "CPU_Hours": 0.2219546509575,
   "Mem_GB_Hours": 0.19588211122773855,
   "GPU_Hours": 0,
   "Runtime": 0.2219546509575,
   "App_Hours": 0.2219546509575,
   "JobId": "21795",
   "Queue": "local",
   "User": "amd_app",
   "App": "ICESIM",
   "JobDescription": "ICESIM",
   "JobName": "cubevnc",
   "Cluster": "aip",
   "CPU_Cost": 0.11097732547875,
   "Mem_Cost": 0,
   "GPU_Cost": 0,
   "App_Cost": 0,
   "StartDate": "2020/12/18",
   "Project": "default"
  },
  {
   "CPU_Hours": 105.03751268473334,
   "Mem_GB_Hours": 0.11681572543082405,
   "GPU_Hours": 0,
   "Runtime": 0.8753126057061111,
   "App_Hours": 105.03751268473334,
   "JobId": "21947",
   "Queue": "q_x86_share",
   "User": "amd_app",
   "App": "Fluent",
   "JobDescription": "Fluent",
   "JobName": "cubevnc",
   "Cluster": "aip",
   "CPU_Cost": 52.51875634236667,
   "Mem_Cost": 0,
   "GPU_Cost": 0,
   "App_Cost": 0,
   "StartDate": "2020/12/19",
   "Project": "default"
  },
  {
   "CPU_Hours": 106.31616145216721,
   "Mem_GB_Hours": 354.5774948295522,
   "GPU_Hours": 106.31616145216721,
   "Runtime": 106.31616145216721,
   "App_Hours": 106.31616145216721,
   "JobId": "18873",
   "Queue": "local",
   "User": "amd_app",
   "App": "ParaView",
   "JobDescription": "ParaView",
   "JobName": "cubevnc",
   "Cluster": "aip",
   "CPU_Cost": 53.158080726083604,
   "Mem_Cost": 0,
   "GPU_Cost": 53.158080726083604,
   "App_Cost": 0,
   "StartDate": "2020/11/30",
   "Project": "default"
  },
  {
   "CPU_Hours": 2.02676162376,
   "Mem_GB_Hours": 0.031279612528016525,
   "GPU_Hours": 0,
   "Runtime": 0.25334520297,
   "App_Hours": 2.02676162376,
   "JobId": "22246",
   "Queue": "q_x86_share",
   "User": "amd_app",
   "App": "ICESIM",
   "JobDescription": "ICESIM/pcb200-1-1-1-1-1",
   "JobName": "/home/export/online3/amd_share/anaconda/bin/python3 /home/export/online3/amd_app/wxy/cas2foam/generate.py q_x86_share 8 100 20 /home/export/online3/amd_app/IcesimProject/pcb200-1-1-1-1-1 pcb200.cas",
   "Cluster": "aip",
   "CPU_Cost": 1.01338081188,
   "Mem_Cost": 0,
   "GPU_Cost": 0,
   "App_Cost": 0,
   "StartDate": "2020/12/21",
   "Project": "default"
  },
  {
   "CPU_Hours": 0.2494521806088889,
   "Mem_GB_Hours": 0.06239754269989972,
   "GPU_Hours": 0.2494521806088889,
   "Runtime": 0.2494521806088889,
   "App_Hours": 0.2494521806088889,
   "JobId": "20508",
   "Queue": "local",
   "User": "amd_app",
   "App": "ICEPAK",
   "JobDescription": "RF",
   "JobName": "cubevnc",
   "Cluster": "aip",
   "CPU_Cost": 0.12472609030444445,
   "Mem_Cost": 0,
   "GPU_Cost": 0.12472609030444445,
   "App_Cost": 0,
   "StartDate": "2020/12/11",
   "Project": "default"
  },
  {
   "CPU_Hours": 0.1511111111111111,
   "Mem_GB_Hours": 0.004338311089409722,
   "GPU_Hours": 0,
   "Runtime": 0.07555555555555556,
   "App_Hours": 0.1511111111111111,
   "JobId": "21209",
   "Queue": "q_x86_share",
   "User": "amd_app",
   "App": "ICESIM",
   "JobDescription": "ICESIM-ss",
   "JobName": "/home/export/online3/amd_share/anaconda/bin/python3 /home/export/online3/amd_app/wxy/cas2foam/generate.py q_x86_share 2 100 20 /home/export/online3/amd_app/IcesimProject/ss ss.cas",
   "Cluster": "aip",
   "CPU_Cost": 0.07555555555555556,
   "Mem_Cost": 0,
   "GPU_Cost": 0,
   "App_Cost": 0,
   "StartDate": "2020/12/16",
   "Project": "default"
  },
  {
   "CPU_Hours": 0.24888888888888888,
   "Mem_GB_Hours": 0.004423895941840277,
   "GPU_Hours": 0,
   "Runtime": 0.03111111111111111,
   "App_Hours": 0.24888888888888888,
   "JobId": "21366",
   "Queue": "q_x86_share",
   "User": "amd_app",
   "App": "ICESIM",
   "JobDescription": "ICESIM-test16",
   "JobName": "/home/export/online3/amd_share/anaconda/bin/python3 /home/export/online3/amd_app/wxy/cas2foam/generate.py q_x86_share 8 100 20 /home/export/base/nsccwuxi_amd/amd_app/online3/IcesimProject/test16 IcepakProj00.cas",
   "Cluster": "aip",
   "CPU_Cost": 0.12444444444444444,
   "Mem_Cost": 0,
   "GPU_Cost": 0,
   "App_Cost": 0,
   "StartDate": "2020/12/17",
   "Project": "default"
  },
  {
   "CPU_Hours": 0.16,
   "Mem_GB_Hours": 0.0038214874267578124,
   "GPU_Hours": 0,
   "Runtime": 0.02,
   "App_Hours": 0.16,
   "JobId": "22425",
   "Queue": "q_x86_share",
   "User": "amd_app",
   "App": "ICESIM",
   "JobDescription": "ICESIM/pcb200-0",
   "JobName": "/home/export/online3/amd_share/anaconda/bin/python3 /home/export/online3/amd_app/wxy/cas2foam/generate.py q_x86_share 8 100 20 /home/export/online3/amd_app/IcesimProject/pcb200-0 pcb200.cas",
   "Cluster": "aip",
   "CPU_Cost": 0.08,
   "Mem_Cost": 0,
   "GPU_Cost": 0,
   "App_Cost": 0,
   "StartDate": "2020/12/22",
   "Project": "default"
  },
  {
   "CPU_Hours": 0.008333333333333333,
   "Mem_GB_Hours": 0.024136479695638022,
   "GPU_Hours": 0,
   "Runtime": 0.008333333333333333,
   "App_Hours": 0.008333333333333333,
   "JobId": "24105",
   "Queue": "local",
   "User": "amd_app",
   "App": "ICESIM",
   "JobDescription": "ICESIM",
   "JobName": "cubevnc",
   "Cluster": "aip",
   "CPU_Cost": 0.004166666666666667,
   "Mem_Cost": 0,
   "GPU_Cost": 0,
   "App_Cost": 0,
   "StartDate": "2020/12/30",
   "Project": "default"
  },
  {
   "CPU_Hours": 0.37084641488138886,
   "Mem_GB_Hours": 1.2875689830198511,
   "GPU_Hours": 0,
   "Runtime": 0.37084641488138886,
   "App_Hours": 0.37084641488138886,
   "JobId": "20159",
   "Queue": "local",
   "User": "amd_app",
   "App": "电子散热APP",
   "JobDescription": "电子散热APP",
   "JobName": "cubevnc",
   "Cluster": "aip",
   "CPU_Cost": 0.18542320744069443,
   "Mem_Cost": 0,
   "GPU_Cost": 0,
   "App_Cost": 0,
   "StartDate": "2020/12/09",
   "Project": "default"
  },
  {
   "CPU_Hours": 0.6699999999999999,
   "Mem_GB_Hours": 0.005806458791097005,
   "GPU_Hours": 0,
   "Runtime": 0.05583333333333333,
   "App_Hours": 0.6699999999999999,
   "JobId": "21914",
   "Queue": "q_x86_share",
   "User": "amd_app",
   "App": "Fluent2020",
   "JobDescription": "Fluent2020",
   "JobName": "cubevnc",
   "Cluster": "aip",
   "CPU_Cost": 0.33499999999999996,
   "Mem_Cost": 0,
   "GPU_Cost": 0,
   "App_Cost": 0,
   "StartDate": "2020/12/19",
   "Project": "default"
  }
 ]
}