{"GPU_Hours": 0.0, "App_Hours": {"LS-DYNAR10double": 0.6944444444444444, "TankSimulator": 8.111944444444445, "Abaqus2017": 0.04027777777777778, "Fluent": 1337.660555555556, "Tanksimulator-Calculix": 0.7955555555555556, "Tanksimulator-MeshGenerate": 0.7302777777777778, "ParaView": 10.828333333333333, "Paraviewserver": 211.27333333333334, "Tanksimulator-Openfoam": 0.7963888888888889}, "Queues": "all", "Month": "2020-05", "CPU_Hours": 1785.7322222222222, "User": "amd_app", "Mem_GB_Hours": 136.83846939616734, "Clusters": ["aip"], "Details": [{"EndDate": "2020/05/06", "GPU_Hours": 0.0, "App": "Fluent", "JobName": "cubevnc", "JobId": "1148", "Queue": "q_x86_expr", "Cluster": "aip", "CPU_Hours": 0.6016666666666667, "User": "amd_app", "Mem_GB_Hours": 0.08551788330078125, "runTime": 0.6016666666666667, "JobDescription": ""}, {"EndDate": "2020/05/06", "GPU_Hours": 0.0, "App": "Fluent", "JobName": "cubevnc", "JobId": "1080", "Queue": "q_x86_expr", "Cluster": "aip", "CPU_Hours": 286.2808333333333, "User": "amd_app", "Mem_GB_Hours": 0.178466796875, "runTime": 286.2808333333333, "JobDescription": ""}, {"EndDate": "2020/05/06", "GPU_Hours": 0.0, "App": "Fluent", "JobName": "cubevnc", "JobId": "1149", "Queue": "q_x86_expr", "Cluster": "aip", "CPU_Hours": 0.03916666666666667, "User": "amd_app", "Mem_GB_Hours": 0.08693695068359375, "runTime": 0.03916666666666667, "JobDescription": ""}, {"EndDate": "2020/05/11", "GPU_Hours": 0.0, "App": "TankSimulator", "JobName": "cubevnc", "JobId": "1204", "Queue": "q_x86_expr", "Cluster": "aip", "CPU_Hours": 0.07694444444444444, "User": "amd_app", "Mem_GB_Hours": 0.1386871337890625, "runTime": 0.07694444444444444, "JobDescription": ""}, {"EndDate": "2020/05/12", "GPU_Hours": 0.0, "App": "Fluent", "JobName": "cubevnc", "JobId": "1203", "Queue": "q_x86_expr", "Cluster": "aip", "CPU_Hours": 27.28, "User": "amd_app", "Mem_GB_Hours": 0.08714675903320312, "runTime": 27.28, "JobDescription": ""}, {"EndDate": "2020/05/12", "GPU_Hours": 0.0, "App": "TankSimulator", "JobName": "cubevnc", "JobId": "1205", "Queue": "q_x86_expr", "Cluster": "aip", "CPU_Hours": 2.8452777777777776, "User": "amd_app", "Mem_GB_Hours": 0.16619491577148438, "runTime": 2.8452777777777776, "JobDescription": ""}, {"EndDate": "2020/05/13", "GPU_Hours": 0.0, "App": "", "JobName": "swof_hotRoom_test_Decompose27306", "JobId": "1206", "Queue": "q_x86_expr", "Cluster": "aip", "CPU_Hours": 0.023333333333333334, "User": "amd_app", "Mem_GB_Hours": 0.017383575439453125, "runTime": 0.023333333333333334, "JobDescription": ""}, {"EndDate": "2020/05/13", "GPU_Hours": 0.0, "App": "", "JobName": "swof_hotRoom_test_Calculate54396", "JobId": "1207", "Queue": "q_sw_expr", "Cluster": "aip", "CPU_Hours": 11.983333333333333, "User": "amd_app", "Mem_GB_Hours": 0.01738739013671875, "runTime": 0.9986111111111111, "JobDescription": ""}, {"EndDate": "2020/05/13", "GPU_Hours": 0.0, "App": "", "JobName": "swof_OF-GUI_test_Mesh7990", "JobId": "1312", "Queue": "q_x86_expr", "Cluster": "aip", "CPU_Hours": 0.013333333333333332, "User": "amd_app", "Mem_GB_Hours": 0.01738739013671875, "runTime": 0.013333333333333332, "JobDescription": ""}, {"EndDate": "2020/05/13", "GPU_Hours": 0.0, "App": "", "JobName": "swof_OF-GUI_test_Mesh4763", "JobId": "1313", "Queue": "q_x86_expr", "Cluster": "aip", "CPU_Hours": 0.0002777777777777778, "User": "amd_app", "Mem_GB_Hours": 0.01738739013671875, "runTime": 0.0002777777777777778, "JobDescription": ""}, {"EndDate": "2020/05/13", "GPU_Hours": 0.0, "App": "", "JobName": "swof_OF-GUI_test_Mesh6585", "JobId": "1314", "Queue": "q_x86_expr", "Cluster": "aip", "CPU_Hours": 0.0002777777777777778, "User": "amd_app", "Mem_GB_Hours": 0.01739501953125, "runTime": 0.0002777777777777778, "JobDescription": ""}, {"EndDate": "2020/05/13", "GPU_Hours": 0.0, "App": "", "JobName": "swof_OF-GUI_test_Mesh3263", "JobId": "1315", "Queue": "q_x86_expr", "Cluster": "aip", "CPU_Hours": 0.0002777777777777778, "User": "amd_app", "Mem_GB_Hours": 0.01738739013671875, "runTime": 0.0002777777777777778, "JobDescription": ""}, {"EndDate": "2020/05/14", "GPU_Hours": 0.0, "App": "", "JobName": "swof_OF-GUI_Test_Mesh2926", "JobId": "1316", "Queue": "q_x86_expr", "Cluster": "aip", "CPU_Hours": 0.011666666666666667, "User": "amd_app", "Mem_GB_Hours": 0.017391204833984375, "runTime": 0.011666666666666667, "JobDescription": ""}, {"EndDate": "2020/05/14", "GPU_Hours": 0.0, "App": "", "JobName": "swof_OF-GUI_Test_Check24288", "JobId": "1317", "Queue": "q_x86_expr", "Cluster": "aip", "CPU_Hours": 0.008333333333333333, "User": "amd_app", "Mem_GB_Hours": 0.017391204833984375, "runTime": 0.008333333333333333, "JobDescription": ""}, {"EndDate": "2020/05/14", "GPU_Hours": 0.0, "App": "", "JobName": "swof_OF-GUI_Test_Check33651", "JobId": "1318", "Queue": "q_x86_expr", "Cluster": "aip", "CPU_Hours": 0.010277777777777778, "User": "amd_app", "Mem_GB_Hours": 0.017391204833984375, "runTime": 0.010277777777777778, "JobDescription": ""}, {"EndDate": "2020/05/14", "GPU_Hours": 0.0, "App": "", "JobName": "swof_hotRoom_test_Decompose80883", "JobId": "1319", "Queue": "q_x86_expr", "Cluster": "aip", "CPU_Hours": 0.009166666666666667, "User": "amd_app", "Mem_GB_Hours": 0.017391204833984375, "runTime": 0.009166666666666667, "JobDescription": ""}, {"EndDate": "2020/05/14", "GPU_Hours": 0.0, "App": "", "JobName": "swof_OF-GUI_Test_Decompose52246", "JobId": "1320", "Queue": "q_x86_expr", "Cluster": "aip", "CPU_Hours": 0.035833333333333335, "User": "amd_app", "Mem_GB_Hours": 0.01739501953125, "runTime": 0.035833333333333335, "JobDescription": ""}, {"EndDate": "2020/05/14", "GPU_Hours": 0.0, "App": "", "JobName": "swof_OF-GUI_Test_Calculate17989", "JobId": "1321", "Queue": "q_x86_expr", "Cluster": "aip", "CPU_Hours": 7.386666666666667, "User": "amd_app", "Mem_GB_Hours": 0.017391204833984375, "runTime": 0.23083333333333333, "JobDescription": ""}, {"EndDate": "2020/05/14", "GPU_Hours": 0.0, "App": "", "JobName": "swof_OF-GUI_Test_Decompose3137", "JobId": "1322", "Queue": "q_x86_expr", "Cluster": "aip", "CPU_Hours": 0.05277777777777778, "User": "amd_app", "Mem_GB_Hours": 0.017391204833984375, "runTime": 0.05277777777777778, "JobDescription": ""}, {"EndDate": "2020/05/14", "GPU_Hours": 0.0, "App": "", "JobName": "swof_OF-GUI_Test_Calculate52277", "JobId": "1323", "Queue": "q_x86_expr", "Cluster": "aip", "CPU_Hours": 7.626666666666667, "User": "amd_app", "Mem_GB_Hours": 0.017391204833984375, "runTime": 0.23833333333333334, "JobDescription": ""}, {"EndDate": "2020/05/14", "GPU_Hours": 0.0, "App": "", "JobName": "swof_OF-GUI_Test_Calculate75632", "JobId": "1327", "Queue": "q_x86_expr", "Cluster": "aip", "CPU_Hours": 0.008888888888888889, "User": "amd_app", "Mem_GB_Hours": 0.017391204833984375, "runTime": 0.0002777777777777778, "JobDescription": ""}, {"EndDate": "2020/05/14", "GPU_Hours": 0.0, "App": "", "JobName": "swof_OF-GUI_Test_Calculate61949", "JobId": "1329", "Queue": "q_x86_expr", "Cluster": "aip", "CPU_Hours": 0.29333333333333333, "User": "amd_app", "Mem_GB_Hours": 0.01738739013671875, "runTime": 0.009166666666666667, "JobDescription": ""}, {"EndDate": "2020/05/14", "GPU_Hours": 0.0, "App": "", "JobName": "swof_OF-GUI_Test_Calculate90047", "JobId": "1332", "Queue": "q_sw_expr", "Cluster": "aip", "CPU_Hours": 9.28, "User": "amd_app", "Mem_GB_Hours": 0.01739501953125, "runTime": 0.29, "JobDescription": ""}, {"EndDate": "2020/05/14", "GPU_Hours": 0.0, "App": "Fluent", "JobName": "cubevnc", "JobId": "1334", "Queue": "q_x86_expr", "Cluster": "aip", "CPU_Hours": 2.1166666666666667, "User": "amd_app", "Mem_GB_Hours": 0.0869903564453125, "runTime": 0.21166666666666667, "JobDescription": ""}, {"EndDate": "2020/05/14", "GPU_Hours": 0.0, "App": "", "JobName": "swof_OF-GUI_Test_Pvserver8109", "JobId": "1337", "Queue": "q_x86_expr", "Cluster": "aip", "CPU_Hours": 0.07888888888888888, "User": "amd_app", "Mem_GB_Hours": 0.01786041259765625, "runTime": 0.01972222222222222, "JobDescription": ""}, {"EndDate": "2020/05/14", "GPU_Hours": 0.0, "App": "", "JobName": "swof_OF-GUI_Test_Calculate51249", "JobId": "1338", "Queue": "q_x86_expr", "Cluster": "aip", "CPU_Hours": 7.511111111111111, "User": "amd_app", "Mem_GB_Hours": 0.017528533935546875, "runTime": 0.23472222222222222, "JobDescription": ""}, {"EndDate": "2020/05/14", "GPU_Hours": 0.0, "App": "Fluent", "JobName": "cubevnc", "JobId": "1339", "Queue": "q_x86_expr", "Cluster": "aip", "CPU_Hours": 0.19111111111111112, "User": "amd_app", "Mem_GB_Hours": 0.0893096923828125, "runTime": 0.19111111111111112, "JobDescription": ""}, {"EndDate": "2020/05/14", "GPU_Hours": 0.0, "App": "TankSimulator", "JobName": "cubevnc", "JobId": "1340", "Queue": "q_x86_expr", "Cluster": "aip", "CPU_Hours": 3.5608333333333335, "User": "amd_app", "Mem_GB_Hours": 0.13069915771484375, "runTime": 3.5608333333333335, "JobDescription": ""}, {"EndDate": "2020/05/14", "GPU_Hours": 0.0, "App": "", "JobName": "swof_OF-GUI_Test_Decompose15962", "JobId": "1348", "Queue": "q_x86_expr", "Cluster": "aip", "CPU_Hours": 0.06583333333333333, "User": "amd_app", "Mem_GB_Hours": 0.01760101318359375, "runTime": 0.06583333333333333, "JobDescription": ""}, {"EndDate": "2020/05/14", "GPU_Hours": 0.0, "App": "", "JobName": "swof_OF-GUI_Test_Decompose73823", "JobId": "1349", "Queue": "q_x86_expr", "Cluster": "aip", "CPU_Hours": 0.0002777777777777778, "User": "amd_app", "Mem_GB_Hours": 0.01760101318359375, "runTime": 0.0002777777777777778, "JobDescription": ""}, {"EndDate": "2020/05/14", "GPU_Hours": 0.0, "App": "", "JobName": "swof_OF-GUI_Test_Decompose44941", "JobId": "1350", "Queue": "q_x86_expr", "Cluster": "aip", "CPU_Hours": 0.0002777777777777778, "User": "amd_app", "Mem_GB_Hours": 0.017604827880859375, "runTime": 0.0002777777777777778, "JobDescription": ""}, {"EndDate": "2020/05/14", "GPU_Hours": 0.0, "App": "", "JobName": "swof_OF-GUI_Test_Decompose42623", "JobId": "1352", "Queue": "q_x86_expr", "Cluster": "aip", "CPU_Hours": 0.029166666666666667, "User": "amd_app", "Mem_GB_Hours": 0.01760101318359375, "runTime": 0.029166666666666667, "JobDescription": ""}, {"EndDate": "2020/05/14", "GPU_Hours": 0.0, "App": "", "JobName": "swof_OF-GUI_Test_Calculate91651", "JobId": "1353", "Queue": "q_x86_expr", "Cluster": "aip", "CPU_Hours": 0.008888888888888889, "User": "amd_app", "Mem_GB_Hours": 0.01760101318359375, "runTime": 0.0002777777777777778, "JobDescription": ""}, {"EndDate": "2020/05/14", "GPU_Hours": 0.0, "App": "", "JobName": "swof_OF-GUI_Test_Calculate62804", "JobId": "1354", "Queue": "q_x86_expr", "Cluster": "aip", "CPU_Hours": 0.008888888888888889, "User": "amd_app", "Mem_GB_Hours": 0.017604827880859375, "runTime": 0.0002777777777777778, "JobDescription": ""}, {"EndDate": "2020/05/14", "GPU_Hours": 0.0, "App": "", "JobName": "swof_OF-GUI_Test_Calculate33169", "JobId": "1355", "Queue": "q_x86_expr", "Cluster": "aip", "CPU_Hours": 1.6444444444444444, "User": "amd_app", "Mem_GB_Hours": 0.017604827880859375, "runTime": 0.05138888888888889, "JobDescription": ""}, {"EndDate": "2020/05/14", "GPU_Hours": 0.0, "App": "", "JobName": "swof_OF-GUI_Test_Calculate81420", "JobId": "1356", "Queue": "q_x86_expr", "Cluster": "aip", "CPU_Hours": 0.008888888888888889, "User": "amd_app", "Mem_GB_Hours": 0.01760101318359375, "runTime": 0.0002777777777777778, "JobDescription": ""}, {"EndDate": "2020/05/14", "GPU_Hours": 0.0, "App": "", "JobName": "swof_OF-GUI_Test_Calculate22661", "JobId": "1357", "Queue": "q_x86_expr", "Cluster": "aip", "CPU_Hours": 0.008888888888888889, "User": "amd_app", "Mem_GB_Hours": 0.01760101318359375, "runTime": 0.0002777777777777778, "JobDescription": ""}, {"EndDate": "2020/05/14", "GPU_Hours": 0.0, "App": "", "JobName": "swof_OF-GUI_Test_Calculate82030", "JobId": "1358", "Queue": "q_sw_expr", "Cluster": "aip", "CPU_Hours": 2.2488888888888887, "User": "amd_app", "Mem_GB_Hours": 0.01760101318359375, "runTime": 0.07027777777777777, "JobDescription": ""}, {"EndDate": "2020/05/14", "GPU_Hours": 0.0, "App": "", "JobName": "swof_OF-GUI_Test_Calculate79289", "JobId": "1360", "Queue": "q_x86_expr", "Cluster": "aip", "CPU_Hours": 0.008888888888888889, "User": "amd_app", "Mem_GB_Hours": 0.017604827880859375, "runTime": 0.0002777777777777778, "JobDescription": ""}, {"EndDate": "2020/05/14", "GPU_Hours": 0.0, "App": "", "JobName": "swof_OF-GUI_Test_Calculate12769", "JobId": "1361", "Queue": "q_x86_expr", "Cluster": "aip", "CPU_Hours": 0.008888888888888889, "User": "amd_app", "Mem_GB_Hours": 0.017608642578125, "runTime": 0.0002777777777777778, "JobDescription": ""}, {"EndDate": "2020/05/14", "GPU_Hours": 0.0, "App": "", "JobName": "swof_OF-GUI_Test_Decompose99274", "JobId": "1362", "Queue": "q_x86_expr", "Cluster": "aip", "CPU_Hours": 0.0002777777777777778, "User": "amd_app", "Mem_GB_Hours": 0.01760101318359375, "runTime": 0.0002777777777777778, "JobDescription": ""}, {"EndDate": "2020/05/14", "GPU_Hours": 0.0, "App": "", "JobName": "swof_OF-GUI_Test_Decompose21733", "JobId": "1363", "Queue": "q_x86_expr", "Cluster": "aip", "CPU_Hours": 0.0002777777777777778, "User": "amd_app", "Mem_GB_Hours": 0.01760101318359375, "runTime": 0.0002777777777777778, "JobDescription": ""}, {"EndDate": "2020/05/14", "GPU_Hours": 0.0, "App": "", "JobName": "swof_OF-GUI_Test_Decompose58345", "JobId": "1364", "Queue": "q_x86_expr", "Cluster": "aip", "CPU_Hours": 0.0002777777777777778, "User": "amd_app", "Mem_GB_Hours": 0.01760101318359375, "runTime": 0.0002777777777777778, "JobDescription": ""}, {"EndDate": "2020/05/14", "GPU_Hours": 0.0, "App": "", "JobName": "swof_OF-GUI_Test_Calculate6303", "JobId": "1365", "Queue": "q_sw_expr", "Cluster": "aip", "CPU_Hours": 3.1733333333333333, "User": "amd_app", "Mem_GB_Hours": 0.017608642578125, "runTime": 0.09916666666666667, "JobDescription": ""}, {"EndDate": "2020/05/14", "GPU_Hours": 0.0, "App": "", "JobName": "swof_OF-GUI_Test_Calculate93255", "JobId": "1367", "Queue": "q_sw_expr", "Cluster": "aip", "CPU_Hours": 2.48, "User": "amd_app", "Mem_GB_Hours": 0.017608642578125, "runTime": 0.0775, "JobDescription": ""}, {"EndDate": "2020/05/14", "GPU_Hours": 0.0, "App": "", "JobName": "swof_OF-GUI_Test_Calculate52893", "JobId": "1368", "Queue": "q_sw_expr", "Cluster": "aip", "CPU_Hours": 13.448888888888888, "User": "amd_app", "Mem_GB_Hours": 0.0176849365234375, "runTime": 0.42027777777777775, "JobDescription": ""}, {"EndDate": "2020/05/15", "GPU_Hours": 0.0, "App": "Fluent", "JobName": "cubevnc", "JobId": "1369", "Queue": "q_x86_expr", "Cluster": "aip", "CPU_Hours": 10.769722222222223, "User": "amd_app", "Mem_GB_Hours": 0.08607864379882812, "runTime": 10.769722222222223, "JobDescription": ""}, {"EndDate": "2020/05/15", "GPU_Hours": 0.0, "App": "", "JobName": "swof_OF-GUI_Test_Calculate37835", "JobId": "1370", "Queue": "q_sw_expr", "Cluster": "aip", "CPU_Hours": 0.008888888888888889, "User": "amd_app", "Mem_GB_Hours": 0.0177154541015625, "runTime": 0.0002777777777777778, "JobDescription": ""}, {"EndDate": "2020/05/15", "GPU_Hours": 0.0, "App": "", "JobName": "swof_OF-GUI_Test_Calculate14586", "JobId": "1371", "Queue": "q_x86_expr", "Cluster": "aip", "CPU_Hours": 1.2177777777777778, "User": "amd_app", "Mem_GB_Hours": 0.0177154541015625, "runTime": 0.03805555555555556, "JobDescription": ""}, {"EndDate": "2020/05/15", "GPU_Hours": 0.0, "App": "", "JobName": "swof_OF-GUI_Test_Calculate88165", "JobId": "1372", "Queue": "q_x86_expr", "Cluster": "aip", "CPU_Hours": 0.4444444444444444, "User": "amd_app", "Mem_GB_Hours": 0.017719268798828125, "runTime": 0.013888888888888888, "JobDescription": ""}, {"EndDate": "2020/05/15", "GPU_Hours": 0.0, "App": "", "JobName": "swof_OF-GUI_Test_Calculate44922", "JobId": "1373", "Queue": "q_x86_expr", "Cluster": "aip", "CPU_Hours": 0.6311111111111111, "User": "amd_app", "Mem_GB_Hours": 0.0177154541015625, "runTime": 0.01972222222222222, "JobDescription": ""}, {"EndDate": "2020/05/15", "GPU_Hours": 0.0, "App": "", "JobName": "swof_OF-GUI_Test_Calculate6602", "JobId": "1374", "Queue": "q_x86_expr", "Cluster": "aip", "CPU_Hours": 4.24, "User": "amd_app", "Mem_GB_Hours": 0.0177154541015625, "runTime": 0.1325, "JobDescription": ""}, {"EndDate": "2020/05/15", "GPU_Hours": 0.0, "App": "", "JobName": "swof_OF-GUI_Test_Calculate78256", "JobId": "1375", "Queue": "q_x86_expr", "Cluster": "aip", "CPU_Hours": 7.333333333333333, "User": "amd_app", "Mem_GB_Hours": 0.0177154541015625, "runTime": 0.22916666666666666, "JobDescription": ""}, {"EndDate": "2020/05/15", "GPU_Hours": 0.0, "App": "", "JobName": "swof_OF-GUI_Test_Calculate84007", "JobId": "1376", "Queue": "q_x86_expr", "Cluster": "aip", "CPU_Hours": 1.04, "User": "amd_app", "Mem_GB_Hours": 0.017719268798828125, "runTime": 0.0325, "JobDescription": ""}, {"EndDate": "2020/05/15", "GPU_Hours": 0.0, "App": "", "JobName": "swof_OF-GUI_Test_Calculate20933", "JobId": "1377", "Queue": "q_x86_expr", "Cluster": "aip", "CPU_Hours": 0.6311111111111111, "User": "amd_app", "Mem_GB_Hours": 0.0177154541015625, "runTime": 0.01972222222222222, "JobDescription": ""}, {"EndDate": "2020/05/15", "GPU_Hours": 0.0, "App": "", "JobName": "swof_OF-GUI_Test_Decompose75997", "JobId": "1378", "Queue": "q_x86_expr", "Cluster": "aip", "CPU_Hours": 0.07833333333333334, "User": "amd_app", "Mem_GB_Hours": 0.0177154541015625, "runTime": 0.07833333333333334, "JobDescription": ""}, {"EndDate": "2020/05/15", "GPU_Hours": 0.0, "App": "", "JobName": "swof_OF-GUI_Test_Calculate75635", "JobId": "1379", "Queue": "q_x86_expr", "Cluster": "aip", "CPU_Hours": 3.2444444444444445, "User": "amd_app", "Mem_GB_Hours": 0.0177154541015625, "runTime": 0.10138888888888889, "JobDescription": ""}, {"EndDate": "2020/05/15", "GPU_Hours": 0.0, "App": "", "JobName": "swof_OF-GUI_Test_Calculate70730", "JobId": "1380", "Queue": "q_x86_expr", "Cluster": "aip", "CPU_Hours": 4.542222222222223, "User": "amd_app", "Mem_GB_Hours": 0.0177154541015625, "runTime": 0.14194444444444446, "JobDescription": ""}, {"EndDate": "2020/05/15", "GPU_Hours": 0.0, "App": "", "JobName": "swof_OF-GUI_Test_Calculate88882", "JobId": "1383", "Queue": "q_sw_expr", "Cluster": "aip", "CPU_Hours": 0.008888888888888889, "User": "amd_app", "Mem_GB_Hours": 0.0177154541015625, "runTime": 0.0002777777777777778, "JobDescription": ""}, {"EndDate": "2020/05/15", "GPU_Hours": 0.0, "App": "", "JobName": "swof_OF-GUI_Test_Calculate20105", "JobId": "1384", "Queue": "q_x86_expr", "Cluster": "aip", "CPU_Hours": 1.5466666666666666, "User": "amd_app", "Mem_GB_Hours": 0.0177154541015625, "runTime": 0.04833333333333333, "JobDescription": ""}, {"EndDate": "2020/05/15", "GPU_Hours": 0.0, "App": "", "JobName": "swof_OF-GUI_Test_Pvserver93717", "JobId": "1385", "Queue": "q_x86_expr", "Cluster": "aip", "CPU_Hours": 0.08555555555555555, "User": "amd_app", "Mem_GB_Hours": 0.004344940185546875, "runTime": 0.021388888888888888, "JobDescription": ""}, {"EndDate": "2020/05/15", "GPU_Hours": 0.0, "App": "", "JobName": "swof_OF-GUI_Test_Calculate34626", "JobId": "1386", "Queue": "q_x86_expr", "Cluster": "aip", "CPU_Hours": 0.4888888888888889, "User": "amd_app", "Mem_GB_Hours": 0.0177154541015625, "runTime": 0.015277777777777777, "JobDescription": ""}, {"EndDate": "2020/05/15", "GPU_Hours": 0.0, "App": "", "JobName": "swof_OF-GUI_Test_Decompose48646", "JobId": "1387", "Queue": "q_x86_expr", "Cluster": "aip", "CPU_Hours": 0.04861111111111111, "User": "amd_app", "Mem_GB_Hours": 0.0177154541015625, "runTime": 0.04861111111111111, "JobDescription": ""}, {"EndDate": "2020/05/15", "GPU_Hours": 0.0, "App": "", "JobName": "swof_OF-GUI_Test_Decompose24268", "JobId": "1388", "Queue": "q_x86_expr", "Cluster": "aip", "CPU_Hours": 0.028055555555555556, "User": "amd_app", "Mem_GB_Hours": 0.017711639404296875, "runTime": 0.028055555555555556, "JobDescription": ""}, {"EndDate": "2020/05/15", "GPU_Hours": 0.0, "App": "", "JobName": "swof_OF-GUI_Test_Decompose75505", "JobId": "1389", "Queue": "q_x86_expr", "Cluster": "aip", "CPU_Hours": 0.023055555555555555, "User": "amd_app", "Mem_GB_Hours": 0.0177154541015625, "runTime": 0.023055555555555555, "JobDescription": ""}, {"EndDate": "2020/05/15", "GPU_Hours": 0.0, "App": "", "JobName": "swof_OF-GUI_Test_Calculate27100", "JobId": "1390", "Queue": "q_sw_expr", "Cluster": "aip", "CPU_Hours": 2.2488888888888887, "User": "amd_app", "Mem_GB_Hours": 0.0177154541015625, "runTime": 0.07027777777777777, "JobDescription": ""}, {"EndDate": "2020/05/15", "GPU_Hours": 0.0, "App": "", "JobName": "swof_OF-GUI_Test_Calculate36145", "JobId": "1391", "Queue": "q_x86_expr", "Cluster": "aip", "CPU_Hours": 4.124444444444444, "User": "amd_app", "Mem_GB_Hours": 0.0177154541015625, "runTime": 0.1288888888888889, "JobDescription": ""}, {"EndDate": "2020/05/15", "GPU_Hours": 0.0, "App": "", "JobName": "swof_OF-GUI_Test_Pvserver2428", "JobId": "1392", "Queue": "q_x86_expr", "Cluster": "aip", "CPU_Hours": 0.03, "User": "amd_app", "Mem_GB_Hours": 0.00484466552734375, "runTime": 0.0075, "JobDescription": ""}, {"EndDate": "2020/05/15", "GPU_Hours": 0.0, "App": "", "JobName": "swof_OF-GUI_Test_Pvserver33044", "JobId": "1393", "Queue": "q_x86_expr", "Cluster": "aip", "CPU_Hours": 0.12666666666666668, "User": "amd_app", "Mem_GB_Hours": 0.0043487548828125, "runTime": 0.010555555555555556, "JobDescription": ""}, {"EndDate": "2020/05/15", "GPU_Hours": 0.0, "App": "", "JobName": "swof_OF-GUI_Test_Calculate4110", "JobId": "1400", "Queue": "q_sw_expr", "Cluster": "aip", "CPU_Hours": 0.017777777777777778, "User": "amd_app", "Mem_GB_Hours": 0.0177154541015625, "runTime": 0.0005555555555555556, "JobDescription": ""}, {"EndDate": "2020/05/15", "GPU_Hours": 0.0, "App": "", "JobName": "swof_OF-GUI_Test_Calculate73010", "JobId": "1401", "Queue": "q_x86_expr", "Cluster": "aip", "CPU_Hours": 7.075555555555556, "User": "amd_app", "Mem_GB_Hours": 0.0177154541015625, "runTime": 0.22111111111111112, "JobDescription": ""}, {"EndDate": "2020/05/15", "GPU_Hours": 0.0, "App": "TankSimulator", "JobName": "cubevnc", "JobId": "1402", "Queue": "q_x86_expr", "Cluster": "aip", "CPU_Hours": 0.009722222222222222, "User": "amd_app", "Mem_GB_Hours": 0.11536788940429688, "runTime": 0.009722222222222222, "JobDescription": ""}, {"EndDate": "2020/05/15", "GPU_Hours": 0.0, "App": "", "JobName": "swof_OF-GUI_Test_Calculate8521", "JobId": "1413", "Queue": "q_sw_expr", "Cluster": "aip", "CPU_Hours": 0.32, "User": "amd_app", "Mem_GB_Hours": 0.0177154541015625, "runTime": 0.01, "JobDescription": ""}, {"EndDate": "2020/05/15", "GPU_Hours": 0.0, "App": "", "JobName": "swof_OF-GUI_Test_Calculate92799", "JobId": "1418", "Queue": "q_sw_expr", "Cluster": "aip", "CPU_Hours": 0.11361111111111111, "User": "amd_app", "Mem_GB_Hours": 0.017719268798828125, "runTime": 0.11361111111111111, "JobDescription": ""}, {"EndDate": "2020/05/15", "GPU_Hours": 0.0, "App": "", "JobName": "swof_OF-GUI_Test_Decompose61284", "JobId": "1419", "Queue": "q_x86_expr", "Cluster": "aip", "CPU_Hours": 0.04694444444444444, "User": "amd_app", "Mem_GB_Hours": 0.0177154541015625, "runTime": 0.04694444444444444, "JobDescription": ""}, {"EndDate": "2020/05/15", "GPU_Hours": 0.0, "App": "", "JobName": "swof_OF-GUI_Test_Decompose79701", "JobId": "1424", "Queue": "q_x86_expr", "Cluster": "aip", "CPU_Hours": 0.01972222222222222, "User": "amd_app", "Mem_GB_Hours": 0.017242431640625, "runTime": 0.01972222222222222, "JobDescription": ""}, {"EndDate": "2020/05/15", "GPU_Hours": 0.0, "App": "", "JobName": "swof_OF-GUI_Test_Decompose35552", "JobId": "1426", "Queue": "q_x86_expr", "Cluster": "aip", "CPU_Hours": 0.019444444444444445, "User": "amd_app", "Mem_GB_Hours": 0.017711639404296875, "runTime": 0.019444444444444445, "JobDescription": ""}, {"EndDate": "2020/05/15", "GPU_Hours": 0.0, "App": "", "JobName": "swof_OF-GUI_Test_Decompose55224", "JobId": "1427", "Queue": "q_x86_expr", "Cluster": "aip", "CPU_Hours": 0.02361111111111111, "User": "amd_app", "Mem_GB_Hours": 0.0177154541015625, "runTime": 0.02361111111111111, "JobDescription": ""}, {"EndDate": "2020/05/15", "GPU_Hours": 0.0, "App": "", "JobName": "swof_OF-GUI_Test_Decompose56391", "JobId": "1429", "Queue": "q_x86_expr", "Cluster": "aip", "CPU_Hours": 0.01861111111111111, "User": "amd_app", "Mem_GB_Hours": 0.0177154541015625, "runTime": 0.01861111111111111, "JobDescription": ""}, {"EndDate": "2020/05/15", "GPU_Hours": 0.0, "App": "", "JobName": "swof_OF-GUI_Test_Calculate79178", "JobId": "1436", "Queue": "q_sw_expr", "Cluster": "aip", "CPU_Hours": 0.16, "User": "amd_app", "Mem_GB_Hours": 0.0177154541015625, "runTime": 0.013333333333333332, "JobDescription": ""}, {"EndDate": "2020/05/15", "GPU_Hours": 0.0, "App": "", "JobName": "swof_OF-GUI_Test_Calculate51861", "JobId": "1438", "Queue": "q_sw_expr", "Cluster": "aip", "CPU_Hours": 0.5766666666666667, "User": "amd_app", "Mem_GB_Hours": 0.0177154541015625, "runTime": 0.04805555555555555, "JobDescription": ""}, {"EndDate": "2020/05/15", "GPU_Hours": 0.0, "App": "", "JobName": "swof_OF-GUI_Test_Calculate76558", "JobId": "1441", "Queue": "q_sw_expr", "Cluster": "aip", "CPU_Hours": 1.1633333333333333, "User": "amd_app", "Mem_GB_Hours": 0.0177154541015625, "runTime": 0.09694444444444444, "JobDescription": ""}, {"EndDate": "2020/05/15", "GPU_Hours": 0.0, "App": "", "JobName": "swof_OF-GUI_Test_Calculate97214", "JobId": "1442", "Queue": "q_sw_expr", "Cluster": "aip", "CPU_Hours": 2.63, "User": "amd_app", "Mem_GB_Hours": 0.0177154541015625, "runTime": 0.21916666666666668, "JobDescription": ""}, {"EndDate": "2020/05/18", "GPU_Hours": 0.0, "App": "", "JobName": "", "JobId": "1450", "Queue": "q_x86_expr", "Cluster": "aip", "CPU_Hours": 0.0005555555555555556, "User": "amd_app", "Mem_GB_Hours": 0.0, "runTime": 0.0002777777777777778, "JobDescription": ""}, {"EndDate": "2020/05/18", "GPU_Hours": 0.0, "App": "", "JobName": "", "JobId": "1451", "Queue": "q_x86_expr", "Cluster": "aip", "CPU_Hours": 0.0005555555555555556, "User": "amd_app", "Mem_GB_Hours": 0.0, "runTime": 0.0002777777777777778, "JobDescription": ""}, {"EndDate": "2020/05/18", "GPU_Hours": 0.0, "App": "", "JobName": "", "JobId": "1452", "Queue": "q_x86_expr", "Cluster": "aip", "CPU_Hours": 1.1333333333333333, "User": "amd_app", "Mem_GB_Hours": 0.08205795288085938, "runTime": 0.04722222222222222, "JobDescription": ""}, {"EndDate": "2020/05/19", "GPU_Hours": 0.0, "App": "Fluent", "JobName": "cubevnc", "JobId": "1453", "Queue": "q_x86_expr", "Cluster": "aip", "CPU_Hours": 0.08055555555555556, "User": "amd_app", "Mem_GB_Hours": 0.08816146850585938, "runTime": 0.08055555555555556, "JobDescription": "Fluent_test"}, {"EndDate": "2020/05/19", "GPU_Hours": 0.0, "App": "Fluent", "JobName": "cubevnc", "JobId": "1454", "Queue": "q_x86_expr", "Cluster": "aip", "CPU_Hours": 0.002777777777777778, "User": "amd_app", "Mem_GB_Hours": 0.029232025146484375, "runTime": 0.002777777777777778, "JobDescription": "Fluent_test"}, {"EndDate": "2020/05/19", "GPU_Hours": 0.0, "App": "Fluent", "JobName": "cubevnc", "JobId": "1455", "Queue": "q_x86_expr", "Cluster": "aip", "CPU_Hours": 0.05638888888888889, "User": "amd_app", "Mem_GB_Hours": 0.03314971923828125, "runTime": 0.05638888888888889, "JobDescription": "Fluent_test"}, {"EndDate": "2020/05/19", "GPU_Hours": 0.0, "App": "Fluent", "JobName": "cubevnc", "JobId": "1456", "Queue": "q_x86_expr", "Cluster": "aip", "CPU_Hours": 0.07166666666666667, "User": "amd_app", "Mem_GB_Hours": 0.0331268310546875, "runTime": 0.07166666666666667, "JobDescription": "Fluent_test"}, {"EndDate": "2020/05/19", "GPU_Hours": 0.0, "App": "", "JobName": "cubevnc", "JobId": "1457", "Queue": "q_x86_expr", "Cluster": "aip", "CPU_Hours": 0.026944444444444444, "User": "amd_app", "Mem_GB_Hours": 0.22682952880859375, "runTime": 0.026944444444444444, "JobDescription": ""}, {"EndDate": "2020/05/19", "GPU_Hours": 0.0, "App": "", "JobName": "", "JobId": "1458", "Queue": "q_x86_expr", "Cluster": "aip", "CPU_Hours": 19.52, "User": "amd_app", "Mem_GB_Hours": 0.082061767578125, "runTime": 0.8133333333333334, "JobDescription": ""}, {"EndDate": "2020/05/19", "GPU_Hours": 0.0, "App": "Fluent", "JobName": "cubevnc", "JobId": "1459", "Queue": "q_x86_expr", "Cluster": "aip", "CPU_Hours": 2.7152777777777777, "User": "amd_app", "Mem_GB_Hours": 0.092193603515625, "runTime": 2.7152777777777777, "JobDescription": "fluentGUItest"}, {"EndDate": "2020/05/20", "GPU_Hours": 0.0, "App": "", "JobName": "", "JobId": "1463", "Queue": "q_x86_expr", "Cluster": "aip", "CPU_Hours": 0.006666666666666666, "User": "amd_app", "Mem_GB_Hours": 0.0, "runTime": 0.0002777777777777778, "JobDescription": ""}, {"EndDate": "2020/05/20", "GPU_Hours": 0.0, "App": "", "JobName": "", "JobId": "1465", "Queue": "q_x86_expr", "Cluster": "aip", "CPU_Hours": 0.013333333333333332, "User": "amd_app", "Mem_GB_Hours": 0.0305328369140625, "runTime": 0.0005555555555555556, "JobDescription": ""}, {"EndDate": "2020/05/20", "GPU_Hours": 0.0, "App": "", "JobName": "", "JobId": "1466", "Queue": "q_x86_expr", "Cluster": "aip", "CPU_Hours": 0.0038888888888888888, "User": "amd_app", "Mem_GB_Hours": 0.005565643310546875, "runTime": 0.0038888888888888888, "JobDescription": ""}, {"EndDate": "2020/05/20", "GPU_Hours": 0.0, "App": "", "JobName": "", "JobId": "1461", "Queue": "q_x86_expr", "Cluster": "aip", "CPU_Hours": 8.266666666666667, "User": "amd_app", "Mem_GB_Hours": 0.08212661743164062, "runTime": 0.34444444444444444, "JobDescription": ""}, {"EndDate": "2020/05/20", "GPU_Hours": 0.0, "App": "", "JobName": "", "JobId": "1468", "Queue": "q_x86_expr", "Cluster": "aip", "CPU_Hours": 0.5666666666666667, "User": "amd_app", "Mem_GB_Hours": 0.08205795288085938, "runTime": 0.02361111111111111, "JobDescription": ""}, {"EndDate": "2020/05/20", "GPU_Hours": 0.0, "App": "", "JobName": "", "JobId": "1471", "Queue": "q_x86_expr", "Cluster": "aip", "CPU_Hours": 0.0002777777777777778, "User": "amd_app", "Mem_GB_Hours": 0.0, "runTime": 0.0002777777777777778, "JobDescription": ""}, {"EndDate": "2020/05/20", "GPU_Hours": 0.0, "App": "", "JobName": "", "JobId": "1472", "Queue": "q_x86_expr", "Cluster": "aip", "CPU_Hours": 0.2222222222222222, "User": "amd_app", "Mem_GB_Hours": 0.00528717041015625, "runTime": 0.2222222222222222, "JobDescription": ""}, {"EndDate": "2020/05/20", "GPU_Hours": 0.0, "App": "", "JobName": "", "JobId": "1473", "Queue": "q_x86_expr", "Cluster": "aip", "CPU_Hours": 0.0002777777777777778, "User": "amd_app", "Mem_GB_Hours": 0.0, "runTime": 0.0002777777777777778, "JobDescription": ""}, {"EndDate": "2020/05/20", "GPU_Hours": 0.0, "App": "", "JobName": "", "JobId": "1474", "Queue": "q_x86_expr", "Cluster": "aip", "CPU_Hours": 0.0044444444444444444, "User": "amd_app", "Mem_GB_Hours": 0.018100738525390625, "runTime": 0.0044444444444444444, "JobDescription": ""}, {"EndDate": "2020/05/20", "GPU_Hours": 0.0, "App": "", "JobName": "", "JobId": "1475", "Queue": "q_x86_expr", "Cluster": "aip", "CPU_Hours": 0.011666666666666667, "User": "amd_app", "Mem_GB_Hours": 0.01813507080078125, "runTime": 0.011666666666666667, "JobDescription": ""}, {"EndDate": "2020/05/20", "GPU_Hours": 0.0, "App": "", "JobName": "", "JobId": "1476", "Queue": "q_x86_expr", "Cluster": "aip", "CPU_Hours": 0.009166666666666667, "User": "amd_app", "Mem_GB_Hours": 0.02793121337890625, "runTime": 0.009166666666666667, "JobDescription": ""}, {"EndDate": "2020/05/20", "GPU_Hours": 0.0, "App": "", "JobName": "", "JobId": "1477", "Queue": "q_x86_expr", "Cluster": "aip", "CPU_Hours": 0.012222222222222223, "User": "amd_app", "Mem_GB_Hours": 0.015140533447265625, "runTime": 0.012222222222222223, "JobDescription": ""}, {"EndDate": "2020/05/20", "GPU_Hours": 0.0, "App": "", "JobName": "", "JobId": "1478", "Queue": "q_x86_expr", "Cluster": "aip", "CPU_Hours": 0.8141666666666667, "User": "amd_app", "Mem_GB_Hours": 0.022754669189453125, "runTime": 0.8141666666666667, "JobDescription": ""}, {"EndDate": "2020/05/20", "GPU_Hours": 0.0, "App": "", "JobName": "", "JobId": "1479", "Queue": "q_x86_expr", "Cluster": "aip", "CPU_Hours": 0.8141666666666667, "User": "amd_app", "Mem_GB_Hours": 0.0244903564453125, "runTime": 0.8141666666666667, "JobDescription": ""}, {"EndDate": "2020/05/20", "GPU_Hours": 0.0, "App": "", "JobName": "Job-115647", "JobId": "1489", "Queue": "q_x86_expr", "Cluster": "aip", "CPU_Hours": 0.0002777777777777778, "User": "amd_app", "Mem_GB_Hours": 0.017612457275390625, "runTime": 0.0002777777777777778, "JobDescription": ""}, {"EndDate": "2020/05/20", "GPU_Hours": 0.0, "App": "", "JobName": "Job-115732", "JobId": "1490", "Queue": "q_x86_expr", "Cluster": "aip", "CPU_Hours": 0.0002777777777777778, "User": "amd_app", "Mem_GB_Hours": 0.017780303955078125, "runTime": 0.0002777777777777778, "JobDescription": ""}, {"EndDate": "2020/05/20", "GPU_Hours": 0.0, "App": "", "JobName": "qiuxiao", "JobId": "1493", "Queue": "q_x86_expr", "Cluster": "aip", "CPU_Hours": 0.0002777777777777778, "User": "amd_app", "Mem_GB_Hours": 0.017780303955078125, "runTime": 0.0002777777777777778, "JobDescription": ""}, {"EndDate": "2020/05/20", "GPU_Hours": 0.0, "App": "", "JobName": "qiuxiao", "JobId": "1494", "Queue": "q_x86_expr", "Cluster": "aip", "CPU_Hours": 0.0002777777777777778, "User": "amd_app", "Mem_GB_Hours": 0.0, "runTime": 0.0002777777777777778, "JobDescription": ""}, {"EndDate": "2020/05/20", "GPU_Hours": 0.0, "App": "", "JobName": "qiuxiao", "JobId": "1495", "Queue": "q_x86_expr", "Cluster": "aip", "CPU_Hours": 0.0011111111111111111, "User": "amd_app", "Mem_GB_Hours": 0.006649017333984375, "runTime": 0.0011111111111111111, "JobDescription": ""}, {"EndDate": "2020/05/20", "GPU_Hours": 0.0, "App": "", "JobName": "qiuxiao", "JobId": "1496", "Queue": "q_x86_expr", "Cluster": "aip", "CPU_Hours": 0.0002777777777777778, "User": "amd_app", "Mem_GB_Hours": 0.0, "runTime": 0.0002777777777777778, "JobDescription": ""}, {"EndDate": "2020/05/20", "GPU_Hours": 0.0, "App": "", "JobName": "qiuxiao", "JobId": "1499", "Queue": "q_x86_expr", "Cluster": "aip", "CPU_Hours": 0.0002777777777777778, "User": "amd_app", "Mem_GB_Hours": 0.0, "runTime": 0.0002777777777777778, "JobDescription": ""}, {"EndDate": "2020/05/20", "GPU_Hours": 0.0, "App": "", "JobName": "", "JobId": "1501", "Queue": "q_x86_expr", "Cluster": "aip", "CPU_Hours": 0.0002777777777777778, "User": "amd_app", "Mem_GB_Hours": 0.0, "runTime": 0.0002777777777777778, "JobDescription": ""}, {"EndDate": "2020/05/20", "GPU_Hours": 0.0, "App": "", "JobName": "Job-142321", "JobId": "1502", "Queue": "q_x86_expr", "Cluster": "aip", "CPU_Hours": 0.0005555555555555556, "User": "amd_app", "Mem_GB_Hours": 0.01757049560546875, "runTime": 0.0002777777777777778, "JobDescription": ""}, {"EndDate": "2020/05/20", "GPU_Hours": 0.0, "App": "", "JobName": "qiuxiao", "JobId": "1503", "Queue": "q_x86_expr", "Cluster": "aip", "CPU_Hours": 0.042222222222222223, "User": "amd_app", "Mem_GB_Hours": 0.017780303955078125, "runTime": 0.021111111111111112, "JobDescription": ""}, {"EndDate": "2020/05/20", "GPU_Hours": 0.0, "App": "", "JobName": "qiuxiao", "JobId": "1504", "Queue": "q_x86_expr", "Cluster": "aip", "CPU_Hours": 0.0005555555555555556, "User": "amd_app", "Mem_GB_Hours": 0.017780303955078125, "runTime": 0.0002777777777777778, "JobDescription": ""}, {"EndDate": "2020/05/20", "GPU_Hours": 0.0, "App": "", "JobName": "Job-142942", "JobId": "1505", "Queue": "q_x86_expr", "Cluster": "aip", "CPU_Hours": 0.19666666666666666, "User": "amd_app", "Mem_GB_Hours": 0.017780303955078125, "runTime": 0.09833333333333333, "JobDescription": ""}, {"EndDate": "2020/05/20", "GPU_Hours": 0.0, "App": "", "JobName": "Job-143611", "JobId": "1506", "Queue": "q_x86_expr", "Cluster": "aip", "CPU_Hours": 0.0005555555555555556, "User": "amd_app", "Mem_GB_Hours": 0.017780303955078125, "runTime": 0.0002777777777777778, "JobDescription": ""}, {"EndDate": "2020/05/20", "GPU_Hours": 0.0, "App": "", "JobName": "qiuxiao", "JobId": "1507", "Queue": "q_x86_expr", "Cluster": "aip", "CPU_Hours": 0.0005555555555555556, "User": "amd_app", "Mem_GB_Hours": 0.017780303955078125, "runTime": 0.0002777777777777778, "JobDescription": ""}, {"EndDate": "2020/05/20", "GPU_Hours": 0.0, "App": "", "JobName": "qiuxiao", "JobId": "1508", "Queue": "q_x86_expr", "Cluster": "aip", "CPU_Hours": 0.0005555555555555556, "User": "amd_app", "Mem_GB_Hours": 0.017822265625, "runTime": 0.0002777777777777778, "JobDescription": ""}, {"EndDate": "2020/05/20", "GPU_Hours": 0.0, "App": "", "JobName": "qiuxiao", "JobId": "1509", "Queue": "q_x86_expr", "Cluster": "aip", "CPU_Hours": 0.3616666666666667, "User": "amd_app", "Mem_GB_Hours": 0.017780303955078125, "runTime": 0.18083333333333335, "JobDescription": ""}, {"EndDate": "2020/05/20", "GPU_Hours": 0.0, "App": "", "JobName": "Job-153927", "JobId": "1510", "Queue": "q_x86_expr", "Cluster": "aip", "CPU_Hours": 0.48, "User": "amd_app", "Mem_GB_Hours": 0.017780303955078125, "runTime": 0.12, "JobDescription": ""}, {"EndDate": "2020/05/20", "GPU_Hours": 0.0, "App": "Fluent", "JobName": "cubevnc", "JobId": "1460", "Queue": "q_x86_expr", "Cluster": "aip", "CPU_Hours": 21.866944444444446, "User": "amd_app", "Mem_GB_Hours": 0.0832366943359375, "runTime": 21.866944444444446, "JobDescription": "fluentGUItest"}, {"EndDate": "2020/05/20", "GPU_Hours": 0.0, "App": "", "JobName": "4.2_Buckling_of_Beer_Can.key", "JobId": "1511", "Queue": "q_x86_expr", "Cluster": "aip", "CPU_Hours": 0.01, "User": "amd_app", "Mem_GB_Hours": 0.017780303955078125, "runTime": 0.005, "JobDescription": ""}, {"EndDate": "2020/05/20", "GPU_Hours": 0.0, "App": "", "JobName": "4.2_Buckling_of_Beer_Can.key", "JobId": "1512", "Queue": "q_x86_expr", "Cluster": "aip", "CPU_Hours": 0.006666666666666666, "User": "amd_app", "Mem_GB_Hours": 0.017780303955078125, "runTime": 0.003333333333333333, "JobDescription": ""}, {"EndDate": "2020/05/20", "GPU_Hours": 0.0, "App": "", "JobName": "4.2_Buckling_of_Beer_Can.key", "JobId": "1513", "Queue": "q_x86_expr", "Cluster": "aip", "CPU_Hours": 0.011111111111111112, "User": "amd_app", "Mem_GB_Hours": 0.0065765380859375, "runTime": 0.005555555555555556, "JobDescription": ""}, {"EndDate": "2020/05/20", "GPU_Hours": 0.0, "App": "", "JobName": "4.2_Buckling_of_Beer_Can.key", "JobId": "1514", "Queue": "q_x86_expr", "Cluster": "aip", "CPU_Hours": 0.019444444444444445, "User": "amd_app", "Mem_GB_Hours": 0.0124053955078125, "runTime": 0.009722222222222222, "JobDescription": ""}, {"EndDate": "2020/05/20", "GPU_Hours": 0.0, "App": "", "JobName": "4.2_Buckling_of_Beer_Can.key", "JobId": "1515", "Queue": "q_x86_expr", "Cluster": "aip", "CPU_Hours": 0.052222222222222225, "User": "amd_app", "Mem_GB_Hours": 0.006580352783203125, "runTime": 0.026111111111111113, "JobDescription": ""}, {"EndDate": "2020/05/20", "GPU_Hours": 0.0, "App": "", "JobName": "4.2_Buckling_of_Beer_Can.key", "JobId": "1516", "Queue": "q_x86_expr", "Cluster": "aip", "CPU_Hours": 0.3111111111111111, "User": "amd_app", "Mem_GB_Hours": 0.017780303955078125, "runTime": 0.15555555555555556, "JobDescription": ""}, {"EndDate": "2020/05/20", "GPU_Hours": 0.0, "App": "Fluent", "JobName": "cubevnc", "JobId": "1517", "Queue": "q_x86_expr", "Cluster": "aip", "CPU_Hours": 0.019444444444444445, "User": "amd_app", "Mem_GB_Hours": 0.0794677734375, "runTime": 0.019444444444444445, "JobDescription": "fluentGUItest"}, {"EndDate": "2020/05/20", "GPU_Hours": 0.0, "App": "Fluent", "JobName": "cubevnc", "JobId": "1518", "Queue": "q_x86_expr", "Cluster": "aip", "CPU_Hours": 0.02277777777777778, "User": "amd_app", "Mem_GB_Hours": 0.0814666748046875, "runTime": 0.02277777777777778, "JobDescription": "fluentGUItest2"}, {"EndDate": "2020/05/20", "GPU_Hours": 0.0, "App": "", "JobName": "swof_test_Mesh2622", "JobId": "1519", "Queue": "q_x86_expr", "Cluster": "aip", "CPU_Hours": 0.008611111111111111, "User": "amd_app", "Mem_GB_Hours": 0.0177154541015625, "runTime": 0.008611111111111111, "JobDescription": ""}, {"EndDate": "2020/05/20", "GPU_Hours": 0.0, "App": "Fluent", "JobName": "cubevnc", "JobId": "1520", "Queue": "q_x86_expr", "Cluster": "aip", "CPU_Hours": 0.21805555555555556, "User": "amd_app", "Mem_GB_Hours": 0.08829879760742188, "runTime": 0.21805555555555556, "JobDescription": "fluentGUItest"}, {"EndDate": "2020/05/20", "GPU_Hours": 0.0, "App": "Fluent", "JobName": "cubevnc", "JobId": "1521", "Queue": "q_x86_expr", "Cluster": "aip", "CPU_Hours": 0.07277777777777777, "User": "amd_app", "Mem_GB_Hours": 0.08517074584960938, "runTime": 0.07277777777777777, "JobDescription": "fluentGUItest"}, {"EndDate": "2020/05/20", "GPU_Hours": 0.0, "App": "Fluent", "JobName": "cubevnc", "JobId": "1522", "Queue": "q_x86_expr", "Cluster": "aip", "CPU_Hours": 2.1466666666666665, "User": "amd_app", "Mem_GB_Hours": 0.08724212646484375, "runTime": 0.08944444444444444, "JobDescription": "fluentGUItest"}, {"EndDate": "2020/05/20", "GPU_Hours": 0.0, "App": "Fluent", "JobName": "cubevnc", "JobId": "1523", "Queue": "q_x86_expr", "Cluster": "aip", "CPU_Hours": 0.014166666666666666, "User": "amd_app", "Mem_GB_Hours": 0.07576751708984375, "runTime": 0.014166666666666666, "JobDescription": "fluentGUItest"}, {"EndDate": "2020/05/20", "GPU_Hours": 0.0, "App": "Fluent", "JobName": "cubevnc", "JobId": "1524", "Queue": "q_x86_expr", "Cluster": "aip", "CPU_Hours": 0.7933333333333333, "User": "amd_app", "Mem_GB_Hours": 0.0861358642578125, "runTime": 0.03305555555555555, "JobDescription": "fluentGUItest"}, {"EndDate": "2020/05/20", "GPU_Hours": 0.0, "App": "Fluent", "JobName": "cubevnc", "JobId": "1525", "Queue": "q_x86_expr", "Cluster": "aip", "CPU_Hours": 0.0475, "User": "amd_app", "Mem_GB_Hours": 0.08571624755859375, "runTime": 0.0475, "JobDescription": "fluentGUItest"}, {"EndDate": "2020/05/20", "GPU_Hours": 0.0, "App": "Fluent", "JobName": "cubevnc", "JobId": "1527", "Queue": "q_x86_expr", "Cluster": "aip", "CPU_Hours": 9.066666666666666, "User": "amd_app", "Mem_GB_Hours": 0.08637237548828125, "runTime": 0.37777777777777777, "JobDescription": "fluentGUItest_parallel"}, {"EndDate": "2020/05/20", "GPU_Hours": 0.0, "App": "Fluent", "JobName": "cubevnc", "JobId": "1526", "Queue": "q_x86_expr", "Cluster": "aip", "CPU_Hours": 0.395, "User": "amd_app", "Mem_GB_Hours": 0.08515548706054688, "runTime": 0.395, "JobDescription": "fluentGUItest_serial"}, {"EndDate": "2020/05/20", "GPU_Hours": 0.0, "App": "Fluent", "JobName": "cubevnc", "JobId": "1528", "Queue": "q_x86_expr", "Cluster": "aip", "CPU_Hours": 0.015277777777777777, "User": "amd_app", "Mem_GB_Hours": 0.07316207885742188, "runTime": 0.015277777777777777, "JobDescription": "fluentGUItest_serial"}, {"EndDate": "2020/05/20", "GPU_Hours": 0.0, "App": "Fluent", "JobName": "cubevnc", "JobId": "1529", "Queue": "q_x86_expr", "Cluster": "aip", "CPU_Hours": 0.02, "User": "amd_app", "Mem_GB_Hours": 0.09021759033203125, "runTime": 0.02, "JobDescription": "\u6211"}, {"EndDate": "2020/05/20", "GPU_Hours": 0.0, "App": "TankSimulator", "JobName": "cubevnc", "JobId": "1530", "Queue": "q_x86_expr", "Cluster": "aip", "CPU_Hours": 0.035277777777777776, "User": "amd_app", "Mem_GB_Hours": 0.10744476318359375, "runTime": 0.035277777777777776, "JobDescription": "\u524d\u5904\u7406"}, {"EndDate": "2020/05/21", "GPU_Hours": 0.0, "App": "", "JobName": "/home/export/online1/amd_app/dzj/ls-dynatest/can/4.2_Buckling_of_Beer_Can.key", "JobId": "1532", "Queue": "q_x86_expr", "Cluster": "aip", "CPU_Hours": 0.31555555555555553, "User": "amd_app", "Mem_GB_Hours": 0.017780303955078125, "runTime": 0.15777777777777777, "JobDescription": ""}, {"EndDate": "2020/05/21", "GPU_Hours": 0.0, "App": "", "JobName": "/home/export/online1/amd_app/dzj/ls-dynatest/can/4.2_Buckling_of_Beer_Can.key", "JobId": "1534", "Queue": "q_x86_expr", "Cluster": "aip", "CPU_Hours": 0.003611111111111111, "User": "amd_app", "Mem_GB_Hours": 0.017612457275390625, "runTime": 0.003611111111111111, "JobDescription": ""}, {"EndDate": "2020/05/21", "GPU_Hours": 0.0, "App": "", "JobName": "/home/export/online1/amd_app/dzj/ls-dynatest/can/4.2_Buckling_of_Beer_Can.key", "JobId": "1535", "Queue": "q_x86_expr", "Cluster": "aip", "CPU_Hours": 0.003611111111111111, "User": "amd_app", "Mem_GB_Hours": 0.017780303955078125, "runTime": 0.003611111111111111, "JobDescription": ""}, {"EndDate": "2020/05/21", "GPU_Hours": 0.0, "App": "", "JobName": "/home/export/online1/amd_app/dzj/ls-dynatest/can/4.2_Buckling_of_Beer_Can.key", "JobId": "1536", "Queue": "q_x86_expr", "Cluster": "aip", "CPU_Hours": 0.006666666666666666, "User": "amd_app", "Mem_GB_Hours": 0.017780303955078125, "runTime": 0.003333333333333333, "JobDescription": ""}, {"EndDate": "2020/05/21", "GPU_Hours": 0.0, "App": "", "JobName": "/home/export/online1/amd_app/dzj/ls-dynatest/can/4.2_Buckling_of_Beer_Can.key", "JobId": "1537", "Queue": "q_x86_expr", "Cluster": "aip", "CPU_Hours": 0.008888888888888889, "User": "amd_app", "Mem_GB_Hours": 0.017780303955078125, "runTime": 0.0044444444444444444, "JobDescription": ""}, {"EndDate": "2020/05/21", "GPU_Hours": 0.0, "App": "", "JobName": "/home/export/online1/amd_app/dzj/ls-dynatest/can/4.2_Buckling_of_Beer_Can.key", "JobId": "1538", "Queue": "q_x86_expr", "Cluster": "aip", "CPU_Hours": 0.06944444444444445, "User": "amd_app", "Mem_GB_Hours": 0.017780303955078125, "runTime": 0.034722222222222224, "JobDescription": ""}, {"EndDate": "2020/05/21", "GPU_Hours": 0.0, "App": "", "JobName": "/home/export/online1/amd_app/dzj/ls-dynatest/can/4.2_Buckling_of_Beer_Can.key", "JobId": "1539", "Queue": "q_x86_expr", "Cluster": "aip", "CPU_Hours": 0.2538888888888889, "User": "amd_app", "Mem_GB_Hours": 0.017780303955078125, "runTime": 0.12694444444444444, "JobDescription": ""}, {"EndDate": "2020/05/21", "GPU_Hours": 0.0, "App": "Fluent", "JobName": "cubevnc", "JobId": "1533", "Queue": "q_x86_expr", "Cluster": "aip", "CPU_Hours": 0.9986111111111111, "User": "amd_app", "Mem_GB_Hours": 0.08518218994140625, "runTime": 0.9986111111111111, "JobDescription": "FlunetGUI_test"}, {"EndDate": "2020/05/21", "GPU_Hours": 0.0, "App": "Fluent", "JobName": "cubevnc", "JobId": "1540", "Queue": "q_x86_expr", "Cluster": "aip", "CPU_Hours": 0.06555555555555556, "User": "amd_app", "Mem_GB_Hours": 0.08294677734375, "runTime": 0.06555555555555556, "JobDescription": "test"}, {"EndDate": "2020/05/21", "GPU_Hours": 0.0, "App": "", "JobName": "/home/export/online1/amd_app/dzj/ls-dynatest/bar1/bar1.k", "JobId": "1542", "Queue": "q_x86_expr", "Cluster": "aip", "CPU_Hours": 0.03944444444444444, "User": "amd_app", "Mem_GB_Hours": 0.017780303955078125, "runTime": 0.01972222222222222, "JobDescription": ""}, {"EndDate": "2020/05/21", "GPU_Hours": 0.0, "App": "", "JobName": "/home/export/base/nsccwuxi_amd/amd_app/online1/dzj/ls-dynatest/seatpull/Seat_Pull_implicit_example.key", "JobId": "1543", "Queue": "q_x86_expr", "Cluster": "aip", "CPU_Hours": 0.6933333333333334, "User": "amd_app", "Mem_GB_Hours": 0.017612457275390625, "runTime": 0.057777777777777775, "JobDescription": ""}, {"EndDate": "2020/05/21", "GPU_Hours": 0.0, "App": "", "JobName": "", "JobId": "1545", "Queue": "q_x86_expr", "Cluster": "aip", "CPU_Hours": 0.0002777777777777778, "User": "amd_app", "Mem_GB_Hours": 0.017780303955078125, "runTime": 0.0002777777777777778, "JobDescription": ""}, {"EndDate": "2020/05/21", "GPU_Hours": 0.0, "App": "", "JobName": "", "JobId": "1546", "Queue": "q_x86_expr", "Cluster": "aip", "CPU_Hours": 0.0002777777777777778, "User": "amd_app", "Mem_GB_Hours": 0.0069732666015625, "runTime": 0.0002777777777777778, "JobDescription": ""}, {"EndDate": "2020/05/21", "GPU_Hours": 0.0, "App": "", "JobName": "", "JobId": "1547", "Queue": "q_x86_expr", "Cluster": "aip", "CPU_Hours": 0.0002777777777777778, "User": "amd_app", "Mem_GB_Hours": 0.017780303955078125, "runTime": 0.0002777777777777778, "JobDescription": ""}, {"EndDate": "2020/05/21", "GPU_Hours": 0.0, "App": "", "JobName": "", "JobId": "1548", "Queue": "q_x86_expr", "Cluster": "aip", "CPU_Hours": 0.0002777777777777778, "User": "amd_app", "Mem_GB_Hours": 0.0, "runTime": 0.0002777777777777778, "JobDescription": ""}, {"EndDate": "2020/05/21", "GPU_Hours": 0.0, "App": "", "JobName": "", "JobId": "1549", "Queue": "q_x86_expr", "Cluster": "aip", "CPU_Hours": 0.006666666666666666, "User": "amd_app", "Mem_GB_Hours": 0.007640838623046875, "runTime": 0.0002777777777777778, "JobDescription": ""}, {"EndDate": "2020/05/21", "GPU_Hours": 0.0, "App": "", "JobName": "", "JobId": "1551", "Queue": "q_x86_expr", "Cluster": "aip", "CPU_Hours": 0.0008333333333333333, "User": "amd_app", "Mem_GB_Hours": 0.00373077392578125, "runTime": 0.0008333333333333333, "JobDescription": ""}, {"EndDate": "2020/05/21", "GPU_Hours": 0.0, "App": "", "JobName": "", "JobId": "1552", "Queue": "q_x86_expr", "Cluster": "aip", "CPU_Hours": 0.0038888888888888888, "User": "amd_app", "Mem_GB_Hours": 0.05759429931640625, "runTime": 0.0038888888888888888, "JobDescription": ""}, {"EndDate": "2020/05/21", "GPU_Hours": 0.0, "App": "", "JobName": "", "JobId": "1550", "Queue": "q_x86_expr", "Cluster": "aip", "CPU_Hours": 7.466666666666667, "User": "amd_app", "Mem_GB_Hours": 0.018951416015625, "runTime": 0.3111111111111111, "JobDescription": ""}, {"EndDate": "2020/05/21", "GPU_Hours": 0.0, "App": "", "JobName": "", "JobId": "1553", "Queue": "q_x86_expr", "Cluster": "aip", "CPU_Hours": 3.04, "User": "amd_app", "Mem_GB_Hours": 0.017780303955078125, "runTime": 0.12666666666666668, "JobDescription": ""}, {"EndDate": "2020/05/21", "GPU_Hours": 0.0, "App": "", "JobName": "", "JobId": "1554", "Queue": "q_x86_expr", "Cluster": "aip", "CPU_Hours": 1.2266666666666666, "User": "amd_app", "Mem_GB_Hours": 0.01757049560546875, "runTime": 0.051111111111111114, "JobDescription": ""}, {"EndDate": "2020/05/21", "GPU_Hours": 0.0, "App": "TankSimulator", "JobName": "cubevnc", "JobId": "1555", "Queue": "q_x86_expr", "Cluster": "aip", "CPU_Hours": 0.01138888888888889, "User": "amd_app", "Mem_GB_Hours": 0.10681533813476562, "runTime": 0.01138888888888889, "JobDescription": "\u524d\u5904\u7406"}, {"EndDate": "2020/05/21", "GPU_Hours": 0.0, "App": "Fluent", "JobName": "cubevnc", "JobId": "1556", "Queue": "q_x86_expr", "Cluster": "aip", "CPU_Hours": 0.06722222222222222, "User": "amd_app", "Mem_GB_Hours": 0.07205963134765625, "runTime": 0.06722222222222222, "JobDescription": "test"}, {"EndDate": "2020/05/21", "GPU_Hours": 0.0, "App": "Fluent", "JobName": "cubevnc", "JobId": "1557", "Queue": "q_x86_expr", "Cluster": "aip", "CPU_Hours": 0.018055555555555554, "User": "amd_app", "Mem_GB_Hours": 0.07452011108398438, "runTime": 0.018055555555555554, "JobDescription": "test"}, {"EndDate": "2020/05/21", "GPU_Hours": 0.0, "App": "TankSimulator", "JobName": "cubevnc", "JobId": "1558", "Queue": "q_x86_expr", "Cluster": "aip", "CPU_Hours": 0.030833333333333334, "User": "amd_app", "Mem_GB_Hours": 0.115081787109375, "runTime": 0.030833333333333334, "JobDescription": "\u524d\u5904\u7406"}, {"EndDate": "2020/05/22", "GPU_Hours": 0.0, "App": "", "JobName": "swof_test_Mesh9824", "JobId": "1662", "Queue": "q_x86_expr", "Cluster": "aip", "CPU_Hours": 0.012222222222222223, "User": "amd_app", "Mem_GB_Hours": 0.0177154541015625, "runTime": 0.012222222222222223, "JobDescription": ""}, {"EndDate": "2020/05/22", "GPU_Hours": 0.0, "App": "TankSimulator", "JobName": "cubevnc", "JobId": "1663", "Queue": "q_x86_expr", "Cluster": "aip", "CPU_Hours": 1.5161111111111112, "User": "amd_app", "Mem_GB_Hours": 0.12425613403320312, "runTime": 1.5161111111111112, "JobDescription": "pretest01"}, {"EndDate": "2020/05/22", "GPU_Hours": 0.0, "App": "", "JobName": "swof_OF-GUI_Test_Check74372", "JobId": "1664", "Queue": "q_x86_expr", "Cluster": "aip", "CPU_Hours": 0.004166666666666667, "User": "amd_app", "Mem_GB_Hours": 0.0177154541015625, "runTime": 0.004166666666666667, "JobDescription": ""}, {"EndDate": "2020/05/22", "GPU_Hours": 0.0, "App": "", "JobName": "swof_test_Check76365", "JobId": "1665", "Queue": "q_x86_expr", "Cluster": "aip", "CPU_Hours": 0.0038888888888888888, "User": "amd_app", "Mem_GB_Hours": 0.0177154541015625, "runTime": 0.0038888888888888888, "JobDescription": ""}, {"EndDate": "2020/05/22", "GPU_Hours": 0.0, "App": "", "JobName": "swof_test_Check46890", "JobId": "1667", "Queue": "q_x86_expr", "Cluster": "aip", "CPU_Hours": 0.005, "User": "amd_app", "Mem_GB_Hours": 0.017719268798828125, "runTime": 0.005, "JobDescription": ""}, {"EndDate": "2020/05/22", "GPU_Hours": 0.0, "App": "", "JobName": "swof_test_Mesh5548", "JobId": "1668", "Queue": "q_x86_expr", "Cluster": "aip", "CPU_Hours": 0.011944444444444445, "User": "amd_app", "Mem_GB_Hours": 0.0177154541015625, "runTime": 0.011944444444444445, "JobDescription": ""}, {"EndDate": "2020/05/22", "GPU_Hours": 0.0, "App": "", "JobName": "swof_test_Check68573", "JobId": "1670", "Queue": "q_x86_expr", "Cluster": "aip", "CPU_Hours": 0.01361111111111111, "User": "amd_app", "Mem_GB_Hours": 0.0177154541015625, "runTime": 0.01361111111111111, "JobDescription": ""}, {"EndDate": "2020/05/22", "GPU_Hours": 0.0, "App": "", "JobName": "", "JobId": "1671", "Queue": "q_x86_expr", "Cluster": "aip", "CPU_Hours": 0.015833333333333335, "User": "amd_app", "Mem_GB_Hours": 0.02447509765625, "runTime": 0.015833333333333335, "JobDescription": ""}, {"EndDate": "2020/05/22", "GPU_Hours": 0.0, "App": "", "JobName": "swof_test_Check14268", "JobId": "1673", "Queue": "q_x86_expr", "Cluster": "aip", "CPU_Hours": 0.0077777777777777776, "User": "amd_app", "Mem_GB_Hours": 0.017711639404296875, "runTime": 0.0077777777777777776, "JobDescription": ""}, {"EndDate": "2020/05/22", "GPU_Hours": 0.0, "App": "", "JobName": "", "JobId": "1672", "Queue": "q_x86_expr", "Cluster": "aip", "CPU_Hours": 0.049166666666666664, "User": "amd_app", "Mem_GB_Hours": 0.022914886474609375, "runTime": 0.049166666666666664, "JobDescription": ""}, {"EndDate": "2020/05/22", "GPU_Hours": 0.0, "App": "", "JobName": "", "JobId": "1676", "Queue": "q_x86_expr", "Cluster": "aip", "CPU_Hours": 0.006666666666666666, "User": "amd_app", "Mem_GB_Hours": 0.0, "runTime": 0.0002777777777777778, "JobDescription": ""}, {"EndDate": "2020/05/22", "GPU_Hours": 0.0, "App": "", "JobName": "", "JobId": "1677", "Queue": "q_x86_expr", "Cluster": "aip", "CPU_Hours": 23.8, "User": "amd_app", "Mem_GB_Hours": 0.0080108642578125, "runTime": 0.9916666666666667, "JobDescription": ""}, {"EndDate": "2020/05/24", "GPU_Hours": 0.0, "App": "Fluent", "JobName": "cubevnc", "JobId": "1679", "Queue": "q_x86_expr", "Cluster": "aip", "CPU_Hours": 0.06666666666666667, "User": "amd_app", "Mem_GB_Hours": 0.08599090576171875, "runTime": 0.002777777777777778, "JobDescription": "FluentGUI-test"}, {"EndDate": "2020/05/24", "GPU_Hours": 0.0, "App": "Fluent", "JobName": "cubevnc", "JobId": "1680", "Queue": "q_x86_expr", "Cluster": "aip", "CPU_Hours": 0.09333333333333334, "User": "amd_app", "Mem_GB_Hours": 0.01902008056640625, "runTime": 0.0038888888888888888, "JobDescription": "FluentGUI-test"}, {"EndDate": "2020/05/24", "GPU_Hours": 0.0, "App": "Fluent", "JobName": "cubevnc", "JobId": "1681", "Queue": "q_x86_expr", "Cluster": "aip", "CPU_Hours": 23.793333333333333, "User": "amd_app", "Mem_GB_Hours": 0.07494735717773438, "runTime": 0.9913888888888889, "JobDescription": "FluentGUI-test"}, {"EndDate": "2020/05/24", "GPU_Hours": 0.0, "App": "Fluent", "JobName": "cubevnc", "JobId": "1685", "Queue": "q_x86_expr", "Cluster": "aip", "CPU_Hours": 0.06666666666666667, "User": "amd_app", "Mem_GB_Hours": 0.08440780639648438, "runTime": 0.002777777777777778, "JobDescription": "FluentGUI-test"}, {"EndDate": "2020/05/24", "GPU_Hours": 0.0, "App": "Fluent", "JobName": "cubevnc", "JobId": "1687", "Queue": "q_x86_expr", "Cluster": "aip", "CPU_Hours": 0.6733333333333333, "User": "amd_app", "Mem_GB_Hours": 0.07059097290039062, "runTime": 0.028055555555555556, "JobDescription": "FluentGUI-test"}, {"EndDate": "2020/05/24", "GPU_Hours": 0.0, "App": "Fluent", "JobName": "cubevnc", "JobId": "1688", "Queue": "q_x86_expr", "Cluster": "aip", "CPU_Hours": 0.0475, "User": "amd_app", "Mem_GB_Hours": 0.02729034423828125, "runTime": 0.0025, "JobDescription": "fluent_test"}, {"EndDate": "2020/05/25", "GPU_Hours": 0.0, "App": "Fluent", "JobName": "cubevnc", "JobId": "1698", "Queue": "q_x86_expr", "Cluster": "aip", "CPU_Hours": 0.0025, "User": "amd_app", "Mem_GB_Hours": 0.028553009033203125, "runTime": 0.0025, "JobDescription": "fluentGUItest"}, {"EndDate": "2020/05/25", "GPU_Hours": 0.0, "App": "Fluent", "JobName": "cubevnc", "JobId": "1699", "Queue": "q_x86_expr", "Cluster": "aip", "CPU_Hours": 0.0019444444444444444, "User": "amd_app", "Mem_GB_Hours": 0.019012451171875, "runTime": 0.0019444444444444444, "JobDescription": "fluentGUItest"}, {"EndDate": "2020/05/25", "GPU_Hours": 0.0, "App": "Fluent", "JobName": "cubevnc", "JobId": "1800", "Queue": "q_x86_share", "Cluster": "aip", "CPU_Hours": 0.99, "User": "amd_app", "Mem_GB_Hours": 0.07732772827148438, "runTime": 0.055, "JobDescription": "fluentGUItest"}, {"EndDate": "2020/05/25", "GPU_Hours": 0.0, "App": "Fluent", "JobName": "cubevnc", "JobId": "1801", "Queue": "q_x86_share", "Cluster": "aip", "CPU_Hours": 0.265, "User": "amd_app", "Mem_GB_Hours": 0.08653640747070312, "runTime": 0.014722222222222222, "JobDescription": "fluentGUItest"}, {"EndDate": "2020/05/25", "GPU_Hours": 0.0, "App": "Fluent", "JobName": "cubevnc", "JobId": "1802", "Queue": "q_x86_share", "Cluster": "aip", "CPU_Hours": 3.071111111111111, "User": "amd_app", "Mem_GB_Hours": 0.09162139892578125, "runTime": 0.19194444444444445, "JobDescription": "fluentGUItest"}, {"EndDate": "2020/05/25", "GPU_Hours": 0.0, "App": "Fluent", "JobName": "cubevnc", "JobId": "1803", "Queue": "q_x86_share", "Cluster": "aip", "CPU_Hours": 0.22333333333333333, "User": "amd_app", "Mem_GB_Hours": 0.07607269287109375, "runTime": 0.01861111111111111, "JobDescription": "fluentGUItest2"}, {"EndDate": "2020/05/25", "GPU_Hours": 0.0, "App": "Fluent", "JobName": "cubevnc", "JobId": "1804", "Queue": "q_x86_expr", "Cluster": "aip", "CPU_Hours": 0.03333333333333333, "User": "amd_app", "Mem_GB_Hours": 0.02855682373046875, "runTime": 0.002777777777777778, "JobDescription": "fluentGUItest2"}, {"EndDate": "2020/05/25", "GPU_Hours": 0.0, "App": "Fluent", "JobName": "cubevnc", "JobId": "1805", "Queue": "q_x86_share", "Cluster": "aip", "CPU_Hours": 0.8066666666666666, "User": "amd_app", "Mem_GB_Hours": 0.07639694213867188, "runTime": 0.06722222222222222, "JobDescription": "fluentGUItest"}, {"EndDate": "2020/05/25", "GPU_Hours": 0.0, "App": "Fluent", "JobName": "cubevnc", "JobId": "1806", "Queue": "q_x86_share", "Cluster": "aip", "CPU_Hours": 0.065, "User": "amd_app", "Mem_GB_Hours": 0.08154296875, "runTime": 0.065, "JobDescription": "fluentGUItest"}, {"EndDate": "2020/05/26", "GPU_Hours": 0.0, "App": "Fluent", "JobName": "cubevnc", "JobId": "1810", "Queue": "q_x86_expr", "Cluster": "aip", "CPU_Hours": 0.03333333333333333, "User": "amd_app", "Mem_GB_Hours": 0.017757415771484375, "runTime": 0.001388888888888889, "JobDescription": "fluentGUItest2"}, {"EndDate": "2020/05/26", "GPU_Hours": 0.0, "App": "Fluent", "JobName": "cubevnc", "JobId": "1811", "Queue": "q_x86_share", "Cluster": "aip", "CPU_Hours": 0.04, "User": "amd_app", "Mem_GB_Hours": 0.02855682373046875, "runTime": 0.0016666666666666666, "JobDescription": "fluentGUItest2"}, {"EndDate": "2020/05/26", "GPU_Hours": 0.0, "App": "Fluent", "JobName": "cubevnc", "JobId": "1812", "Queue": "q_x86_expr", "Cluster": "aip", "CPU_Hours": 0.001388888888888889, "User": "amd_app", "Mem_GB_Hours": 0.028560638427734375, "runTime": 0.001388888888888889, "JobDescription": "fluentGUItest2"}, {"EndDate": "2020/05/26", "GPU_Hours": 0.0, "App": "Fluent", "JobName": "cubevnc", "JobId": "1813", "Queue": "q_x86_share", "Cluster": "aip", "CPU_Hours": 0.04, "User": "amd_app", "Mem_GB_Hours": 0.017547607421875, "runTime": 0.0016666666666666666, "JobDescription": "fluentGUI"}, {"EndDate": "2020/05/26", "GPU_Hours": 0.0, "App": "Fluent", "JobName": "cubevnc", "JobId": "1809", "Queue": "q_x86_share", "Cluster": "aip", "CPU_Hours": 28.08, "User": "amd_app", "Mem_GB_Hours": 0.08282852172851562, "runTime": 0.585, "JobDescription": "fluentGUItest"}, {"EndDate": "2020/05/26", "GPU_Hours": 0.0, "App": "Fluent", "JobName": "cubevnc", "JobId": "1814", "Queue": "q_x86_share", "Cluster": "aip", "CPU_Hours": 0.03333333333333333, "User": "amd_app", "Mem_GB_Hours": 0.017547607421875, "runTime": 0.001388888888888889, "JobDescription": "fluentGUItest2"}, {"EndDate": "2020/05/26", "GPU_Hours": 0.0, "App": "Fluent", "JobName": "cubevnc", "JobId": "1815", "Queue": "q_x86_share", "Cluster": "aip", "CPU_Hours": 0.03333333333333333, "User": "amd_app", "Mem_GB_Hours": 0.028553009033203125, "runTime": 0.001388888888888889, "JobDescription": "fluentGUItest"}, {"EndDate": "2020/05/26", "GPU_Hours": 0.0, "App": "LS-DYNAR10double", "JobName": "/home/export/base/nsccwuxi_amd/amd_app/online1/dzj/ls-dynatest/can/4.2_Buckling_of_Beer_Can.key", "JobId": "1818", "Queue": "q_x86_expr", "Cluster": "aip", "CPU_Hours": 0.255, "User": "amd_app", "Mem_GB_Hours": 0.017780303955078125, "runTime": 0.1275, "JobDescription": "/home/export/base/nsccwuxi_amd/amd_app/online1/dzj/ls-dynatest/can/4.2_Buckling_of_Beer_Can.key"}, {"EndDate": "2020/05/26", "GPU_Hours": 0.0, "App": "LS-DYNAR10double", "JobName": "/home/export/base/nsccwuxi_amd/amd_app/online1/dzj/ls-dynatest/can/4.2_Buckling_of_Beer_Can.key", "JobId": "1819", "Queue": "q_x86_expr", "Cluster": "aip", "CPU_Hours": 0.07833333333333334, "User": "amd_app", "Mem_GB_Hours": 0.017780303955078125, "runTime": 0.03916666666666667, "JobDescription": "/home/export/base/nsccwuxi_amd/amd_app/online1/dzj/ls-dynatest/can/4.2_Buckling_of_Beer_Can.key"}, {"EndDate": "2020/05/26", "GPU_Hours": 0.0, "App": "LS-DYNAR10double", "JobName": "/home/export/base/nsccwuxi_amd/amd_app/online1/dzj/ls-dynatest/can/4.2_Buckling_of_Beer_Can.key", "JobId": "1820", "Queue": "q_x86_expr", "Cluster": "aip", "CPU_Hours": 0.043333333333333335, "User": "amd_app", "Mem_GB_Hours": 0.017612457275390625, "runTime": 0.021666666666666667, "JobDescription": "4.2_Buckling_of_Beer_Can.key"}, {"EndDate": "2020/05/26", "GPU_Hours": 0.0, "App": "LS-DYNAR10double", "JobName": "/home/export/base/nsccwuxi_amd/amd_app/online1/dzj/ls-dynatest/can/4.2_Buckling_of_Beer_Can.key", "JobId": "1822", "Queue": "q_x86_expr", "Cluster": "aip", "CPU_Hours": 0.029444444444444443, "User": "amd_app", "Mem_GB_Hours": 0.017780303955078125, "runTime": 0.014722222222222222, "JobDescription": "4.2_Buckling_of_Beer_Can.key"}, {"EndDate": "2020/05/26", "GPU_Hours": 0.0, "App": "LS-DYNAR10double", "JobName": "/home/export/base/nsccwuxi_amd/amd_app/online1/dzj/ls-dynatest/can/4.2_Buckling_of_Beer_Can.key", "JobId": "1821", "Queue": "q_x86_expr", "Cluster": "aip", "CPU_Hours": 0.28833333333333333, "User": "amd_app", "Mem_GB_Hours": 0.017780303955078125, "runTime": 0.14416666666666667, "JobDescription": "4.2_Buckling_of_Beer_Can.key"}, {"EndDate": "2020/05/26", "GPU_Hours": 0.0, "App": "Abaqus2017", "JobName": "Job-101804", "JobId": "1823", "Queue": "q_x86_expr", "Cluster": "aip", "CPU_Hours": 0.04027777777777778, "User": "amd_app", "Mem_GB_Hours": 0.017780303955078125, "runTime": 0.04027777777777778, "JobDescription": "Job-101804-suoguan"}, {"EndDate": "2020/05/26", "GPU_Hours": 0.0, "App": "Fluent", "JobName": "cubevnc", "JobId": "1824", "Queue": "q_x86_share", "Cluster": "aip", "CPU_Hours": 8.353333333333333, "User": "amd_app", "Mem_GB_Hours": 0.08228302001953125, "runTime": 0.34805555555555556, "JobDescription": "fluentGUItest"}, {"EndDate": "2020/05/26", "GPU_Hours": 0.0, "App": "Fluent", "JobName": "cubevnc", "JobId": "1826", "Queue": "q_x86_share", "Cluster": "aip", "CPU_Hours": 71.21333333333334, "User": "amd_app", "Mem_GB_Hours": 0.0821533203125, "runTime": 2.9672222222222224, "JobDescription": "fluentGUItest"}, {"EndDate": "2020/05/26", "GPU_Hours": 0.0, "App": "Fluent", "JobName": "cubevnc", "JobId": "1825", "Queue": "q_x86_share", "Cluster": "aip", "CPU_Hours": 172.81333333333333, "User": "amd_app", "Mem_GB_Hours": 0.09070587158203125, "runTime": 3.600277777777778, "JobDescription": "fluentGUItest2"}, {"EndDate": "2020/05/27", "GPU_Hours": 0.0, "App": "", "JobName": "", "JobId": "1828", "Queue": "q_x86_expr", "Cluster": "aip", "CPU_Hours": 2.62, "User": "amd_app", "Mem_GB_Hours": 0.0226593017578125, "runTime": 2.62, "JobDescription": ""}, {"EndDate": "2020/05/27", "GPU_Hours": 0.0, "App": "", "JobName": "", "JobId": "1829", "Queue": "q_x86_expr", "Cluster": "aip", "CPU_Hours": 2.62, "User": "amd_app", "Mem_GB_Hours": 0.024394989013671875, "runTime": 2.62, "JobDescription": ""}, {"EndDate": "2020/05/27", "GPU_Hours": 0.0, "App": "Tanksimulator-Calculix", "JobName": "", "JobId": "1830", "Queue": "q_x86_expr", "Cluster": "aip", "CPU_Hours": 0.016944444444444446, "User": "amd_app", "Mem_GB_Hours": 0.022754669189453125, "runTime": 0.016944444444444446, "JobDescription": "testmonpoint"}, {"EndDate": "2020/05/27", "GPU_Hours": 0.0, "App": "Tanksimulator-Openfoam", "JobName": "", "JobId": "1831", "Queue": "q_x86_expr", "Cluster": "aip", "CPU_Hours": 0.017222222222222222, "User": "amd_app", "Mem_GB_Hours": 0.024486541748046875, "runTime": 0.017222222222222222, "JobDescription": "testmonpoint"}, {"EndDate": "2020/05/27", "GPU_Hours": 0.0, "App": "Fluent", "JobName": "cubevnc", "JobId": "1834", "Queue": "q_x86_share", "Cluster": "aip", "CPU_Hours": 0.10055555555555555, "User": "amd_app", "Mem_GB_Hours": 0.08237457275390625, "runTime": 0.10055555555555555, "JobDescription": "fluentGUItest"}, {"EndDate": "2020/05/27", "GPU_Hours": 0.0, "App": "Fluent", "JobName": "cubevnc", "JobId": "1835", "Queue": "q_x86_share", "Cluster": "aip", "CPU_Hours": 0.14583333333333334, "User": "amd_app", "Mem_GB_Hours": 0.08180618286132812, "runTime": 0.14583333333333334, "JobDescription": "fluentGUItest"}, {"EndDate": "2020/05/27", "GPU_Hours": 0.0, "App": "Tanksimulator-Calculix", "JobName": "", "JobId": "1832", "Queue": "q_x86_expr", "Cluster": "aip", "CPU_Hours": 0.7786111111111111, "User": "amd_app", "Mem_GB_Hours": 0.022731781005859375, "runTime": 0.7786111111111111, "JobDescription": "testmonpoint"}, {"EndDate": "2020/05/27", "GPU_Hours": 0.0, "App": "Tanksimulator-Openfoam", "JobName": "", "JobId": "1833", "Queue": "q_x86_expr", "Cluster": "aip", "CPU_Hours": 0.7791666666666667, "User": "amd_app", "Mem_GB_Hours": 0.0244903564453125, "runTime": 0.7791666666666667, "JobDescription": "testmonpoint"}, {"EndDate": "2020/05/27", "GPU_Hours": 0.0, "App": "Fluent", "JobName": "cubevnc", "JobId": "1836", "Queue": "q_x86_share", "Cluster": "aip", "CPU_Hours": 0.6725, "User": "amd_app", "Mem_GB_Hours": 0.08327484130859375, "runTime": 0.6725, "JobDescription": "fluentGUItest"}, {"EndDate": "2020/05/27", "GPU_Hours": 0.0, "App": "", "JobName": "swof_motorBike_Pvserver28362", "JobId": "1838", "Queue": "q_x86_expr", "Cluster": "aip", "CPU_Hours": 0.2822222222222222, "User": "amd_app", "Mem_GB_Hours": 0.00434112548828125, "runTime": 0.07055555555555555, "JobDescription": ""}, {"EndDate": "2020/05/27", "GPU_Hours": 0.0, "App": "", "JobName": "swof_OF-GUI_Test_Pvserver58923", "JobId": "1839", "Queue": "q_x86_expr", "Cluster": "aip", "CPU_Hours": 1.9566666666666666, "User": "amd_app", "Mem_GB_Hours": 0.0043487548828125, "runTime": 0.16305555555555556, "JobDescription": ""}, {"EndDate": "2020/05/27", "GPU_Hours": 0.0, "App": "", "JobName": "swof_OF-GUI_Test_Decompose64371", "JobId": "1840", "Queue": "q_x86_expr", "Cluster": "aip", "CPU_Hours": 0.023333333333333334, "User": "amd_app", "Mem_GB_Hours": 0.0177154541015625, "runTime": 0.023333333333333334, "JobDescription": ""}, {"EndDate": "2020/05/27", "GPU_Hours": 0.0, "App": "TankSimulator", "JobName": "cubevnc", "JobId": "1843", "Queue": "q_x86_expr", "Cluster": "aip", "CPU_Hours": 0.025555555555555557, "User": "amd_app", "Mem_GB_Hours": 0.1338958740234375, "runTime": 0.025555555555555557, "JobDescription": "pretest01"}, {"EndDate": "2020/05/27", "GPU_Hours": 0.0, "App": "Fluent", "JobName": "cubevnc", "JobId": "1837", "Queue": "q_x86_share", "Cluster": "aip", "CPU_Hours": 65.70666666666666, "User": "amd_app", "Mem_GB_Hours": 0.08488845825195312, "runTime": 1.3688888888888888, "JobDescription": "fluentGUItest2"}, {"EndDate": "2020/05/27", "GPU_Hours": 0.0, "App": "", "JobName": "swof_OF-GUI_Test_Calculate5270", "JobId": "1841", "Queue": "q_sw_expr", "Cluster": "aip", "CPU_Hours": 11.933333333333334, "User": "amd_app", "Mem_GB_Hours": 0.0177154541015625, "runTime": 0.9944444444444445, "JobDescription": ""}, {"EndDate": "2020/05/28", "GPU_Hours": 0.0, "App": "Fluent", "JobName": "cubevnc", "JobId": "1953", "Queue": "q_x86_share", "Cluster": "aip", "CPU_Hours": 0.1, "User": "amd_app", "Mem_GB_Hours": 0.0096588134765625, "runTime": 0.0016666666666666666, "JobDescription": "fluentGUItest2"}, {"EndDate": "2020/05/28", "GPU_Hours": 0.0, "App": "Fluent", "JobName": "cubevnc", "JobId": "1954", "Queue": "q_x86_share", "Cluster": "aip", "CPU_Hours": 0.08, "User": "amd_app", "Mem_GB_Hours": 0.00966644287109375, "runTime": 0.0016666666666666666, "JobDescription": "fluentGUItest"}, {"EndDate": "2020/05/28", "GPU_Hours": 0.0, "App": "Fluent", "JobName": "cubevnc", "JobId": "1955", "Queue": "q_x86_share", "Cluster": "aip", "CPU_Hours": 1.5866666666666667, "User": "amd_app", "Mem_GB_Hours": 0.08352279663085938, "runTime": 0.03305555555555555, "JobDescription": "fluentGUItest"}, {"EndDate": "2020/05/28", "GPU_Hours": 0.0, "App": "", "JobName": "swof_/home/export/base/nsccwuxi_amd/amd_app/online1/ZHL/Project/OF/OpenFOAM-GUI/OF-GUI_Test/Test_0429/OF-GUI_Test_Pvserver22111", "JobId": "1957", "Queue": "q_x86_expr", "Cluster": "aip", "CPU_Hours": 0.12, "User": "amd_app", "Mem_GB_Hours": 0.00687408447265625, "runTime": 0.01, "JobDescription": ""}, {"EndDate": "2020/05/28", "GPU_Hours": 0.0, "App": "", "JobName": "swof_/home/export/base/nsccwuxi_amd/amd_app/online1/ZHL/Project/OF/OpenFOAM-GUI/OF-GUI_Test/Test_0429/OF-GUI_Test_Calculate51773", "JobId": "1958", "Queue": "q_sw_expr", "Cluster": "aip", "CPU_Hours": 0.04, "User": "amd_app", "Mem_GB_Hours": 0.00934600830078125, "runTime": 0.003333333333333333, "JobDescription": ""}, {"EndDate": "2020/05/28", "GPU_Hours": 0.0, "App": "", "JobName": "swof_/home/export/base/nsccwuxi_amd/amd_app/online1/ZHL/Project/OF/OpenFOAM-GUI/OF-GUI_Test/Test_0429/OF-GUI_Test_Calculate11603", "JobId": "1959", "Queue": "q_x86_share", "Cluster": "aip", "CPU_Hours": 0.4533333333333333, "User": "amd_app", "Mem_GB_Hours": 0.018596649169921875, "runTime": 0.03777777777777778, "JobDescription": ""}, {"EndDate": "2020/05/28", "GPU_Hours": 0.0, "App": "", "JobName": "swof_/home/export/base/nsccwuxi_amd/amd_app/online1/ZHL/Project/SimGO/OF/motorBike_Pvserver58677", "JobId": "1960", "Queue": "q_x86_expr", "Cluster": "aip", "CPU_Hours": 0.04666666666666667, "User": "amd_app", "Mem_GB_Hours": 0.011547088623046875, "runTime": 0.011666666666666667, "JobDescription": ""}, {"EndDate": "2020/05/28", "GPU_Hours": 0.0, "App": "Fluent", "JobName": "cubevnc", "JobId": "1956", "Queue": "q_x86_share", "Cluster": "aip", "CPU_Hours": 112.16666666666667, "User": "amd_app", "Mem_GB_Hours": 0.08394622802734375, "runTime": 1.8694444444444445, "JobDescription": "fluentGUItest"}, {"EndDate": "2020/05/28", "GPU_Hours": 0.0, "App": "Fluent", "JobName": "cubevnc", "JobId": "1962", "Queue": "q_x86_share", "Cluster": "aip", "CPU_Hours": 2.2333333333333334, "User": "amd_app", "Mem_GB_Hours": 0.073883056640625, "runTime": 0.09305555555555556, "JobDescription": "fluenttest"}, {"EndDate": "2020/05/28", "GPU_Hours": 0.0, "App": "Fluent", "JobName": "cubevnc", "JobId": "1964", "Queue": "q_x86_share", "Cluster": "aip", "CPU_Hours": 36.306666666666665, "User": "amd_app", "Mem_GB_Hours": 0.07758331298828125, "runTime": 0.7563888888888889, "JobDescription": "fluenttest"}, {"EndDate": "2020/05/28", "GPU_Hours": 0.0, "App": "Fluent", "JobName": "cubevnc", "JobId": "1963", "Queue": "q_x86_share", "Cluster": "aip", "CPU_Hours": 24.6, "User": "amd_app", "Mem_GB_Hours": 0.07965087890625, "runTime": 1.025, "JobDescription": "fluenttest2"}, {"EndDate": "2020/05/28", "GPU_Hours": 0.0, "App": "", "JobName": "swof_/home/export/base/nsccwuxi_amd/amd_app/online1/ZHL/Project/SimGO/OF/motorBike_Pvserver8010", "JobId": "1965", "Queue": "q_x86_expr", "Cluster": "aip", "CPU_Hours": 0.03888888888888889, "User": "amd_app", "Mem_GB_Hours": 0.004451751708984375, "runTime": 0.009722222222222222, "JobDescription": ""}, {"EndDate": "2020/05/28", "GPU_Hours": 0.0, "App": "", "JobName": "swof_/home/export/base/nsccwuxi_amd/amd_app/online1/ZHL/Project/OF/OpenFOAM-GUI/OF-GUI_Test/Test_0429/OF-GUI_Test_Decompose97962", "JobId": "1966", "Queue": "q_x86_expr", "Cluster": "aip", "CPU_Hours": 0.04027777777777778, "User": "amd_app", "Mem_GB_Hours": 0.00934600830078125, "runTime": 0.04027777777777778, "JobDescription": ""}, {"EndDate": "2020/05/28", "GPU_Hours": 0.0, "App": "", "JobName": "swof_/home/export/base/nsccwuxi_amd/amd_app/online1/ZHL/Project/OF/OpenFOAM-GUI/OF-GUI_Test/Test_0429/OF-GUI_Test_Calculate33445", "JobId": "1967", "Queue": "q_sw_expr", "Cluster": "aip", "CPU_Hours": 12.786666666666667, "User": "amd_app", "Mem_GB_Hours": 0.00934600830078125, "runTime": 0.5327777777777778, "JobDescription": ""}, {"EndDate": "2020/05/29", "GPU_Hours": 0.0, "App": "ParaView", "JobName": "cubevnc", "JobId": "1976", "Queue": "q_x86_expr", "Cluster": "aip", "CPU_Hours": 1.425, "User": "amd_app", "Mem_GB_Hours": 8.869197845458984, "runTime": 1.425, "JobDescription": "paraviewtest"}, {"EndDate": "2020/05/29", "GPU_Hours": 0.0, "App": "Paraviewserver", "JobName": "", "JobId": "1978", "Queue": "q_x86_expr", "Cluster": "aip", "CPU_Hours": 3.566666666666667, "User": "amd_app", "Mem_GB_Hours": 0.005367279052734375, "runTime": 0.1486111111111111, "JobDescription": "Paraviewserver"}, {"EndDate": "2020/05/29", "GPU_Hours": 0.0, "App": "Paraviewserver", "JobName": "", "JobId": "1980", "Queue": "q_x86_share", "Cluster": "aip", "CPU_Hours": 6.573333333333333, "User": "amd_app", "Mem_GB_Hours": 0.014308929443359375, "runTime": 0.13694444444444445, "JobDescription": "Paraviewserver"}, {"EndDate": "2020/05/29", "GPU_Hours": 0.0, "App": "ParaView", "JobName": "cubevnc", "JobId": "1979", "Queue": "q_x86_expr", "Cluster": "aip", "CPU_Hours": 2.995277777777778, "User": "amd_app", "Mem_GB_Hours": 2.2414207458496094, "runTime": 2.995277777777778, "JobDescription": "paraviewtest"}, {"EndDate": "2020/05/29", "GPU_Hours": 0.0, "App": "Paraviewserver", "JobName": "", "JobId": "1981", "Queue": "q_x86_share", "Cluster": "aip", "CPU_Hours": 196.34, "User": "amd_app", "Mem_GB_Hours": 0.005462646484375, "runTime": 2.7269444444444444, "JobDescription": "Paraviewserver"}, {"EndDate": "2020/05/29", "GPU_Hours": 0.0, "App": "Paraviewserver", "JobName": "", "JobId": "1983", "Queue": "q_x86_expr", "Cluster": "aip", "CPU_Hours": 0.006666666666666666, "User": "amd_app", "Mem_GB_Hours": 0.007781982421875, "runTime": 0.0002777777777777778, "JobDescription": "Paraviewserver"}, {"EndDate": "2020/05/29", "GPU_Hours": 0.0, "App": "ParaView", "JobName": "cubevnc", "JobId": "1982", "Queue": "q_x86_expr", "Cluster": "aip", "CPU_Hours": 0.42944444444444446, "User": "amd_app", "Mem_GB_Hours": 2.905536651611328, "runTime": 0.42944444444444446, "JobDescription": "paraviewtest"}, {"EndDate": "2020/05/29", "GPU_Hours": 0.0, "App": "Paraviewserver", "JobName": "", "JobId": "1984", "Queue": "q_x86_expr", "Cluster": "aip", "CPU_Hours": 4.786666666666667, "User": "amd_app", "Mem_GB_Hours": 0.01081085205078125, "runTime": 0.19944444444444445, "JobDescription": "Paraviewserver"}, {"EndDate": "2020/05/29", "GPU_Hours": 0.0, "App": "Tanksimulator-MeshGenerate", "JobName": "", "JobId": "1985", "Queue": "q_x86_expr", "Cluster": "aip", "CPU_Hours": 0.25055555555555553, "User": "amd_app", "Mem_GB_Hours": 101.15015029907227, "runTime": 0.25055555555555553, "JobDescription": "testmeshgen"}, {"EndDate": "2020/05/29", "GPU_Hours": 0.0, "App": "ParaView", "JobName": "cubevnc", "JobId": "1987", "Queue": "q_x86_expr", "Cluster": "aip", "CPU_Hours": 0.04388888888888889, "User": "amd_app", "Mem_GB_Hours": 0.4606361389160156, "runTime": 0.04388888888888889, "JobDescription": "paraviewtest"}, {"EndDate": "2020/05/29", "GPU_Hours": 0.0, "App": "Tanksimulator-MeshGenerate", "JobName": "", "JobId": "1986", "Queue": "q_x86_expr", "Cluster": "aip", "CPU_Hours": 0.1836111111111111, "User": "amd_app", "Mem_GB_Hours": 103.5627555847168, "runTime": 0.1836111111111111, "JobDescription": "testmeshgen"}, {"EndDate": "2020/05/29", "GPU_Hours": 0.0, "App": "Tanksimulator-MeshGenerate", "JobName": "", "JobId": "1989", "Queue": "q_x86_expr", "Cluster": "aip", "CPU_Hours": 0.08222222222222222, "User": "amd_app", "Mem_GB_Hours": 62.572933197021484, "runTime": 0.08222222222222222, "JobDescription": "testmeshgen"}, {"EndDate": "2020/05/29", "GPU_Hours": 0.0, "App": "Tanksimulator-MeshGenerate", "JobName": "", "JobId": "1990", "Queue": "q_x86_expr", "Cluster": "aip", "CPU_Hours": 0.07111111111111111, "User": "amd_app", "Mem_GB_Hours": 0.0250701904296875, "runTime": 0.07111111111111111, "JobDescription": "testmeshgen"}, {"EndDate": "2020/05/29", "GPU_Hours": 0.0, "App": "Fluent", "JobName": "cubevnc", "JobId": "1968", "Queue": "q_x86_share", "Cluster": "aip", "CPU_Hours": 417.06666666666666, "User": "amd_app", "Mem_GB_Hours": 0.0856781005859375, "runTime": 17.377777777777776, "JobDescription": "fluenttest2"}, {"EndDate": "2020/05/29", "GPU_Hours": 0.0, "App": "ParaView", "JobName": "cubevnc", "JobId": "1988", "Queue": "q_x86_expr", "Cluster": "aip", "CPU_Hours": 0.4216666666666667, "User": "amd_app", "Mem_GB_Hours": 0.3826103210449219, "runTime": 0.4216666666666667, "JobDescription": "paraviewtest"}, {"EndDate": "2020/05/29", "GPU_Hours": 0.0, "App": "Tanksimulator-MeshGenerate", "JobName": "", "JobId": "1991", "Queue": "q_x86_expr", "Cluster": "aip", "CPU_Hours": 0.14277777777777778, "User": "amd_app", "Mem_GB_Hours": 0.025066375732421875, "runTime": 0.14277777777777778, "JobDescription": "testmeshgen"}, {"EndDate": "2020/05/29", "GPU_Hours": 0.0, "App": "ParaView", "JobName": "cubevnc", "JobId": "1992", "Queue": "q_x86_expr", "Cluster": "aip", "CPU_Hours": 0.8083333333333333, "User": "amd_app", "Mem_GB_Hours": 0.4275627136230469, "runTime": 0.8083333333333333, "JobDescription": "paraviewtest"}, {"EndDate": "2020/05/30", "GPU_Hours": 0.0, "App": "ParaView", "JobName": "cubevnc", "JobId": "1993", "Queue": "q_x86_expr", "Cluster": "aip", "CPU_Hours": 4.704722222222222, "User": "amd_app", "Mem_GB_Hours": 1.0708541870117188, "runTime": 4.704722222222222, "JobDescription": "paraviewtest"}]}
