{"GPU_Hours":0,"App_Hours":{"LSPrePost":{"Hours":57.381111111111,"UnitPrice":0,"Cost":0},"TankSimulator":{"Hours":22.238055555556,"UnitPrice":5,"Cost":111.19027777778},"Abaqus":{"Hours":234.965,"UnitPrice":0,"Cost":0},"LS-DYNA-R9double":{"Hours":0.73888888888889,"UnitPrice":0,"Cost":0},"Abaqus2017":{"Hours":91.150277777778,"UnitPrice":0,"Cost":0},"LS-DYNA-R10double":{"Hours":4.8916666666667,"UnitPrice":0,"Cost":0},"Fluent":{"Hours":1791.7144444444,"UnitPrice":10,"Cost":17917.144444444},"StarCCM":{"Hours":736.78916666667,"UnitPrice":0,"Cost":0},"ParaView":{"Hours":107.16138888889,"UnitPrice":0,"Cost":0},"ICEM-CFD":{"Hours":9.5738888888889,"UnitPrice":0,"Cost":0},"Paraviewserver":{"Hours":1087.8933333333,"UnitPrice":0,"Cost":0},"PointWise":{"Hours":0.79222222222222,"UnitPrice":0,"Cost":0},"LS-DYNA-R9single":{"Hours":21.94,"UnitPrice":0,"Cost":0},"TankSim":{"Hours":0.0044444444444444,"UnitPrice":0,"Cost":0},"LS-DYNA-R10single":{"Hours":26.86,"UnitPrice":0,"Cost":0}},"Queues":"all","Month":"2020-06","CPU_Hours":4194.1408333333,"User":"amd_app","Mem_GB_Hours":403.89812708643,"Clusters":["aip"],"Details":[{"EndDate":"2020\/06\/01","GPU_Hours":0,"App":"Abaqus2017","JobName":"Job-091354","JobId":"2004","Queue":"q_x86_share","Cluster":"aip","CPU_Hours":0.035555555555556,"User":"amd_app","Mem_GB_Hours":0.011051177978516,"runTime":0.0088888888888889,"JobDescription":"Job-091354-Model-1","GPU_Cost":0,"CPU_Cost":0.035555555555556,"Mem_Cost":0,"App_Cost":0},{"EndDate":"2020\/06\/01","GPU_Hours":0,"App":"Abaqus2017","JobName":"Job-091457","JobId":"2005","Queue":"q_x86_expr","Cluster":"aip","CPU_Hours":0.027777777777778,"User":"amd_app","Mem_GB_Hours":0.01104736328125,"runTime":0.0069444444444444,"JobDescription":"Job-091457-Model-1","GPU_Cost":0,"CPU_Cost":0.027777777777778,"Mem_Cost":0,"App_Cost":0},{"EndDate":"2020\/06\/01","GPU_Hours":0,"App":"Abaqus2017","JobName":"Job-092010","JobId":"2006","Queue":"q_x86_expr","Cluster":"aip","CPU_Hours":0.19888888888889,"User":"amd_app","Mem_GB_Hours":0.011058807373047,"runTime":0.049722222222222,"JobDescription":"Job-092010-explicit","GPU_Cost":0,"CPU_Cost":0.19888888888889,"Mem_Cost":0,"App_Cost":0},{"EndDate":"2020\/06\/01","GPU_Hours":0,"App":"Abaqus2017","JobName":"Job-092757","JobId":"2007","Queue":"q_x86_expr","Cluster":"aip","CPU_Hours":0.062222222222222,"User":"amd_app","Mem_GB_Hours":0.011054992675781,"runTime":0.0077777777777778,"JobDescription":"Job-092757-Model-1_blowmolding","GPU_Cost":0,"CPU_Cost":0.062222222222222,"Mem_Cost":0,"App_Cost":0},{"EndDate":"2020\/06\/01","GPU_Hours":0,"App":"Abaqus2017","JobName":"Job-092908","JobId":"2008","Queue":"q_x86_share","Cluster":"aip","CPU_Hours":0.04,"User":"amd_app","Mem_GB_Hours":0.011051177978516,"runTime":0.01,"JobDescription":"Job-092908-Model-1_blowmolding","GPU_Cost":0,"CPU_Cost":0.04,"Mem_Cost":0,"App_Cost":0},{"EndDate":"2020\/06\/01","GPU_Hours":0,"App":"Abaqus2017","JobName":"Job-093117","JobId":"2009","Queue":"q_x86_expr","Cluster":"aip","CPU_Hours":0.016111111111111,"User":"amd_app","Mem_GB_Hours":0.011051177978516,"runTime":0.0080555555555556,"JobDescription":"Job-093117-Model-1_blowmolding","GPU_Cost":0,"CPU_Cost":0.016111111111111,"Mem_Cost":0,"App_Cost":0},{"EndDate":"2020\/06\/01","GPU_Hours":0,"App":"Abaqus2017","JobName":"Job-093333","JobId":"2010","Queue":"q_x86_share","Cluster":"aip","CPU_Hours":0.027777777777778,"User":"amd_app","Mem_GB_Hours":0.01104736328125,"runTime":0.0069444444444444,"JobDescription":"Job-093333-Model-1_blowmolding","GPU_Cost":0,"CPU_Cost":0.027777777777778,"Mem_Cost":0,"App_Cost":0},{"EndDate":"2020\/06\/01","GPU_Hours":0,"App":"Paraviewserver","JobName":"","JobId":"2012","Queue":"q_x86_share","Cluster":"aip","CPU_Hours":0.02,"User":"amd_app","Mem_GB_Hours":0,"runTime":0.00027777777777778,"JobDescription":"Paraviewserver","GPU_Cost":0,"CPU_Cost":0.02,"Mem_Cost":0,"App_Cost":0},{"EndDate":"2020\/06\/01","GPU_Hours":0,"App":"Abaqus","JobName":"cubevnc","JobId":"2003","Queue":"q_x86_expr","Cluster":"aip","CPU_Hours":0.56777777777778,"User":"amd_app","Mem_GB_Hours":0.6316032409668,"runTime":0.56777777777778,"JobDescription":"test01","GPU_Cost":0,"CPU_Cost":0.56777777777778,"Mem_Cost":0,"App_Cost":0},{"EndDate":"2020\/06\/01","GPU_Hours":0,"App":"Paraviewserver","JobName":"","JobId":"2013","Queue":"q_x86_share","Cluster":"aip","CPU_Hours":26.42,"User":"amd_app","Mem_GB_Hours":0.005340576171875,"runTime":0.36694444444444,"JobDescription":"Paraviewserver","GPU_Cost":0,"CPU_Cost":26.42,"Mem_Cost":0,"App_Cost":0},{"EndDate":"2020\/06\/01","GPU_Hours":0,"App":"Abaqus2017","JobName":"Job-104756","JobId":"2015","Queue":"q_x86_share","Cluster":"aip","CPU_Hours":0.073333333333333,"User":"amd_app","Mem_GB_Hours":0.011875152587891,"runTime":0.018333333333333,"JobDescription":"Job-104756-Model-1","GPU_Cost":0,"CPU_Cost":0.073333333333333,"Mem_Cost":0,"App_Cost":0},{"EndDate":"2020\/06\/01","GPU_Hours":0,"App":"Abaqus2017","JobName":"Job-105159","JobId":"2016","Queue":"q_x86_share","Cluster":"aip","CPU_Hours":0.033333333333333,"User":"amd_app","Mem_GB_Hours":0.011890411376953,"runTime":0.0083333333333333,"JobDescription":"Job-105159-Model-1","GPU_Cost":0,"CPU_Cost":0.033333333333333,"Mem_Cost":0,"App_Cost":0},{"EndDate":"2020\/06\/01","GPU_Hours":0,"App":"Abaqus","JobName":"cubevnc","JobId":"2014","Queue":"q_x86_expr","Cluster":"aip","CPU_Hours":0.24944444444444,"User":"amd_app","Mem_GB_Hours":0.62670135498047,"runTime":0.24944444444444,"JobDescription":"test01","GPU_Cost":0,"CPU_Cost":0.24944444444444,"Mem_Cost":0,"App_Cost":0},{"EndDate":"2020\/06\/01","GPU_Hours":0,"App":"Abaqus2017","JobName":"Job-110255","JobId":"2018","Queue":"q_x86_share","Cluster":"aip","CPU_Hours":0.12388888888889,"User":"amd_app","Mem_GB_Hours":0.011890411376953,"runTime":0.061944444444444,"JobDescription":"Job-110255-explicit","GPU_Cost":0,"CPU_Cost":0.12388888888889,"Mem_Cost":0,"App_Cost":0},{"EndDate":"2020\/06\/01","GPU_Hours":0,"App":"Abaqus","JobName":"cubevnc","JobId":"2017","Queue":"q_x86_expr","Cluster":"aip","CPU_Hours":0.38055555555556,"User":"amd_app","Mem_GB_Hours":0.57185363769531,"runTime":0.38055555555556,"JobDescription":"test01","GPU_Cost":0,"CPU_Cost":0.38055555555556,"Mem_Cost":0,"App_Cost":0},{"EndDate":"2020\/06\/01","GPU_Hours":0,"App":"Paraviewserver","JobName":"","JobId":"2019","Queue":"q_x86_share","Cluster":"aip","CPU_Hours":14.26,"User":"amd_app","Mem_GB_Hours":0.01788330078125,"runTime":0.19805555555556,"JobDescription":"Paraviewserver","GPU_Cost":0,"CPU_Cost":14.26,"Mem_Cost":0,"App_Cost":0},{"EndDate":"2020\/06\/01","GPU_Hours":0,"App":"ParaView","JobName":"cubevnc","JobId":"2011","Queue":"q_x86_expr","Cluster":"aip","CPU_Hours":1.8702777777778,"User":"amd_app","Mem_GB_Hours":2.4416732788086,"runTime":1.8702777777778,"JobDescription":"paraviewtest","GPU_Cost":0,"CPU_Cost":1.8702777777778,"Mem_Cost":0,"App_Cost":0},{"EndDate":"2020\/06\/01","GPU_Hours":0,"App":"Abaqus","JobName":"cubevnc","JobId":"2020","Queue":"q_x86_expr","Cluster":"aip","CPU_Hours":0.61888888888889,"User":"amd_app","Mem_GB_Hours":0.60874938964844,"runTime":0.61888888888889,"JobDescription":"test01","GPU_Cost":0,"CPU_Cost":0.61888888888889,"Mem_Cost":0,"App_Cost":0},{"EndDate":"2020\/06\/01","GPU_Hours":0,"App":"Abaqus2017","JobName":"Job-122036","JobId":"2024","Queue":"q_x86_share","Cluster":"aip","CPU_Hours":0.053333333333333,"User":"amd_app","Mem_GB_Hours":0.011058807373047,"runTime":0.013333333333333,"JobDescription":"Job-122036-T_Element","GPU_Cost":0,"CPU_Cost":0.053333333333333,"Mem_Cost":0,"App_Cost":0},{"EndDate":"2020\/06\/01","GPU_Hours":0,"App":"Abaqus","JobName":"cubevnc","JobId":"2023","Queue":"q_x86_expr","Cluster":"aip","CPU_Hours":0.053333333333333,"User":"amd_app","Mem_GB_Hours":0.60678482055664,"runTime":0.053333333333333,"JobDescription":"27_heat_sensor","GPU_Cost":0,"CPU_Cost":0.053333333333333,"Mem_Cost":0,"App_Cost":0},{"EndDate":"2020\/06\/01","GPU_Hours":0,"App":"Abaqus2017","JobName":"Job-122358","JobId":"2026","Queue":"q_x86_share","Cluster":"aip","CPU_Hours":0.055555555555556,"User":"amd_app","Mem_GB_Hours":0.011058807373047,"runTime":0.013888888888889,"JobDescription":"Job-122358-Model-1","GPU_Cost":0,"CPU_Cost":0.055555555555556,"Mem_Cost":0,"App_Cost":0},{"EndDate":"2020\/06\/01","GPU_Hours":0,"App":"Abaqus","JobName":"cubevnc","JobId":"2027","Queue":"q_x86_expr","Cluster":"aip","CPU_Hours":0.073888888888889,"User":"amd_app","Mem_GB_Hours":0.51182556152344,"runTime":0.073888888888889,"JobDescription":"qiuxiao","GPU_Cost":0,"CPU_Cost":0.073888888888889,"Mem_Cost":0,"App_Cost":0},{"EndDate":"2020\/06\/01","GPU_Hours":0,"App":"Abaqus2017","JobName":"Job-123151","JobId":"2028","Queue":"q_x86_share","Cluster":"aip","CPU_Hours":0.50666666666667,"User":"amd_app","Mem_GB_Hours":0.011058807373047,"runTime":0.12666666666667,"JobDescription":"Job-123151-qiuxiao","GPU_Cost":0,"CPU_Cost":0.50666666666667,"Mem_Cost":0,"App_Cost":0},{"EndDate":"2020\/06\/01","GPU_Hours":0,"App":"Abaqus","JobName":"cubevnc","JobId":"2029","Queue":"q_x86_expr","Cluster":"aip","CPU_Hours":0.13833333333333,"User":"amd_app","Mem_GB_Hours":0.57034301757812,"runTime":0.13833333333333,"JobDescription":"qiuxiao","GPU_Cost":0,"CPU_Cost":0.13833333333333,"Mem_Cost":0,"App_Cost":0},{"EndDate":"2020\/06\/01","GPU_Hours":0,"App":"ParaView","JobName":"cubevnc","JobId":"2021","Queue":"q_x86_expr","Cluster":"aip","CPU_Hours":2.5647222222222,"User":"amd_app","Mem_GB_Hours":0.347412109375,"runTime":2.5647222222222,"JobDescription":"paraviewtest","GPU_Cost":0,"CPU_Cost":2.5647222222222,"Mem_Cost":0,"App_Cost":0},{"EndDate":"2020\/06\/01","GPU_Hours":0,"App":"Abaqus","JobName":"cubevnc","JobId":"2022","Queue":"q_x86_expr","Cluster":"aip","CPU_Hours":6.1405555555556,"User":"amd_app","Mem_GB_Hours":0.56462860107422,"runTime":6.1405555555556,"JobDescription":"test01","GPU_Cost":0,"CPU_Cost":6.1405555555556,"Mem_Cost":0,"App_Cost":0},{"EndDate":"2020\/06\/02","GPU_Hours":0,"App":"Abaqus","JobName":"cubevnc","JobId":"2030","Queue":"q_x86_expr","Cluster":"aip","CPU_Hours":20.241111111111,"User":"amd_app","Mem_GB_Hours":0.49106979370117,"runTime":20.241111111111,"JobDescription":"qiuxiao","GPU_Cost":0,"CPU_Cost":20.241111111111,"Mem_Cost":0,"App_Cost":0},{"EndDate":"2020\/06\/02","GPU_Hours":0,"App":"Abaqus","JobName":"cubevnc","JobId":"2025","Queue":"q_x86_expr","Cluster":"aip","CPU_Hours":20.923055555556,"User":"amd_app","Mem_GB_Hours":0.52492141723633,"runTime":20.923055555556,"JobDescription":"gasket_seal","GPU_Cost":0,"CPU_Cost":20.923055555556,"Mem_Cost":0,"App_Cost":0},{"EndDate":"2020\/06\/02","GPU_Hours":0,"App":"Paraviewserver","JobName":"","JobId":"2032","Queue":"q_x86_share","Cluster":"aip","CPU_Hours":19.04,"User":"amd_app","Mem_GB_Hours":0.0052909851074219,"runTime":0.26444444444444,"JobDescription":"Paraviewserver","GPU_Cost":0,"CPU_Cost":19.04,"Mem_Cost":0,"App_Cost":0},{"EndDate":"2020\/06\/02","GPU_Hours":0,"App":"Paraviewserver","JobName":"","JobId":"2034","Queue":"q_x86_share","Cluster":"aip","CPU_Hours":126.8,"User":"amd_app","Mem_GB_Hours":0.0078201293945312,"runTime":1.7611111111111,"JobDescription":"Paraviewserver","GPU_Cost":0,"CPU_Cost":126.8,"Mem_Cost":0,"App_Cost":0},{"EndDate":"2020\/06\/02","GPU_Hours":0,"App":"Abaqus2017","JobName":"Job-112909","JobId":"2036","Queue":"q_x86_share","Cluster":"aip","CPU_Hours":13.206666666667,"User":"amd_app","Mem_GB_Hours":0.011104583740234,"runTime":0.55027777777778,"JobDescription":"Job-112909-e1","GPU_Cost":0,"CPU_Cost":13.206666666667,"Mem_Cost":0,"App_Cost":0},{"EndDate":"2020\/06\/02","GPU_Hours":0,"App":"LS-DYNA-R10double","JobName":"\/home\/export\/online1\/amd_app\/dzj\/twocars\/ls-dyna\/Caravan-V03c-2400k-main-shell16-10ms.k","JobId":"2037","Queue":"q_x86_share","Cluster":"aip","CPU_Hours":2.6,"User":"amd_app","Mem_GB_Hours":0.01116943359375,"runTime":0.10833333333333,"JobDescription":"Caravan-V03c-2400k-main-shell16-10ms.k","GPU_Cost":0,"CPU_Cost":2.6,"Mem_Cost":0,"App_Cost":0},{"EndDate":"2020\/06\/02","GPU_Hours":0,"App":"Abaqus2017","JobName":"Job-154601","JobId":"2038","Queue":"q_x86_share","Cluster":"aip","CPU_Hours":1.2466666666667,"User":"amd_app","Mem_GB_Hours":0.011947631835938,"runTime":0.051944444444444,"JobDescription":"Job-154601-abaqus2cars","GPU_Cost":0,"CPU_Cost":1.2466666666667,"Mem_Cost":0,"App_Cost":0},{"EndDate":"2020\/06\/02","GPU_Hours":0,"App":"ParaView","JobName":"cubevnc","JobId":"2031","Queue":"q_x86_expr","Cluster":"aip","CPU_Hours":6.5813888888889,"User":"amd_app","Mem_GB_Hours":0.41451263427734,"runTime":6.5813888888889,"JobDescription":"paraviewtest","GPU_Cost":0,"CPU_Cost":6.5813888888889,"Mem_Cost":0,"App_Cost":0},{"EndDate":"2020\/06\/02","GPU_Hours":0,"App":"Abaqus2017","JobName":"Job-160552","JobId":"2045","Queue":"q_x86_share","Cluster":"aip","CPU_Hours":1.3733333333333,"User":"amd_app","Mem_GB_Hours":0.018051147460938,"runTime":0.057222222222222,"JobDescription":"Job-160552-abaqus2cars","GPU_Cost":0,"CPU_Cost":1.3733333333333,"Mem_Cost":0,"App_Cost":0},{"EndDate":"2020\/06\/02","GPU_Hours":0,"App":"Abaqus2017","JobName":"abaqus2cars","JobId":"2053","Queue":"q_x86_share","Cluster":"aip","CPU_Hours":0.99333333333333,"User":"amd_app","Mem_GB_Hours":0.018569946289062,"runTime":0.041388888888889,"JobDescription":"Abaqus2carstest","GPU_Cost":0,"CPU_Cost":0.99333333333333,"Mem_Cost":0,"App_Cost":0},{"EndDate":"2020\/06\/02","GPU_Hours":0,"App":"Fluent","JobName":"cubevnc","JobId":"2047","Queue":"q_x86_share","Cluster":"aip","CPU_Hours":1.4033333333333,"User":"amd_app","Mem_GB_Hours":0.069972991943359,"runTime":0.23388888888889,"JobDescription":"fluent_test_4","GPU_Cost":0,"CPU_Cost":1.4033333333333,"Mem_Cost":0,"App_Cost":14.033333333333},{"EndDate":"2020\/06\/02","GPU_Hours":0,"App":"Fluent","JobName":"cubevnc","JobId":"2052","Queue":"q_x86_share","Cluster":"aip","CPU_Hours":0.98666666666667,"User":"amd_app","Mem_GB_Hours":0.078845977783203,"runTime":0.082222222222222,"JobDescription":"fluent_test_12","GPU_Cost":0,"CPU_Cost":0.98666666666667,"Mem_Cost":0,"App_Cost":9.8666666666667},{"EndDate":"2020\/06\/02","GPU_Hours":0,"App":"Abaqus2017","JobName":"abaqus2cars","JobId":"2055","Queue":"q_x86_share","Cluster":"aip","CPU_Hours":0.88,"User":"amd_app","Mem_GB_Hours":0.018657684326172,"runTime":0.036666666666667,"JobDescription":"Abaqus2carstest","GPU_Cost":0,"CPU_Cost":0.88,"Mem_Cost":0,"App_Cost":0},{"EndDate":"2020\/06\/02","GPU_Hours":0,"App":"Abaqus2017","JobName":"abaqus2cars","JobId":"2059","Queue":"q_x86_share","Cluster":"aip","CPU_Hours":0.90666666666667,"User":"amd_app","Mem_GB_Hours":0.0075531005859375,"runTime":0.037777777777778,"JobDescription":"Abaqus2carstest01","GPU_Cost":0,"CPU_Cost":0.90666666666667,"Mem_Cost":0,"App_Cost":0},{"EndDate":"2020\/06\/02","GPU_Hours":0,"App":"Fluent","JobName":"cubevnc","JobId":"2067","Queue":"q_x86_share","Cluster":"aip","CPU_Hours":3.6761111111111,"User":"amd_app","Mem_GB_Hours":0.080024719238281,"runTime":0.14138888888889,"JobDescription":"fluent_test_26","GPU_Cost":0,"CPU_Cost":3.6761111111111,"Mem_Cost":0,"App_Cost":36.761111111111},{"EndDate":"2020\/06\/02","GPU_Hours":0,"App":"Fluent","JobName":"cubevnc","JobId":"2065","Queue":"q_x86_share","Cluster":"aip","CPU_Hours":5.3133333333333,"User":"amd_app","Mem_GB_Hours":0.14890289306641,"runTime":0.22138888888889,"JobDescription":"fluent_test_24","GPU_Cost":0,"CPU_Cost":5.3133333333333,"Mem_Cost":0,"App_Cost":53.133333333333},{"EndDate":"2020\/06\/02","GPU_Hours":0,"App":"Fluent","JobName":"cubevnc","JobId":"2051","Queue":"q_x86_share","Cluster":"aip","CPU_Hours":7.7666666666667,"User":"amd_app","Mem_GB_Hours":0.081863403320312,"runTime":0.77666666666667,"JobDescription":"fluent_test_10","GPU_Cost":0,"CPU_Cost":7.7666666666667,"Mem_Cost":0,"App_Cost":77.666666666667},{"EndDate":"2020\/06\/02","GPU_Hours":0,"App":"Fluent","JobName":"cubevnc","JobId":"2056","Queue":"q_x86_share","Cluster":"aip","CPU_Hours":8.14,"User":"amd_app","Mem_GB_Hours":0.081951141357422,"runTime":0.67833333333333,"JobDescription":"fluent_test_12","GPU_Cost":0,"CPU_Cost":8.14,"Mem_Cost":0,"App_Cost":81.4},{"EndDate":"2020\/06\/02","GPU_Hours":0,"App":"Fluent","JobName":"cubevnc","JobId":"2061","Queue":"q_x86_share","Cluster":"aip","CPU_Hours":9.075,"User":"amd_app","Mem_GB_Hours":0.14817047119141,"runTime":0.50416666666667,"JobDescription":"fluent_test_18","GPU_Cost":0,"CPU_Cost":9.075,"Mem_Cost":0,"App_Cost":90.75},{"EndDate":"2020\/06\/02","GPU_Hours":0,"App":"Fluent","JobName":"cubevnc","JobId":"2060","Queue":"q_x86_share","Cluster":"aip","CPU_Hours":8.8133333333333,"User":"amd_app","Mem_GB_Hours":0.081741333007812,"runTime":0.55083333333333,"JobDescription":"fluent_test_16","GPU_Cost":0,"CPU_Cost":8.8133333333333,"Mem_Cost":0,"App_Cost":88.133333333333},{"EndDate":"2020\/06\/02","GPU_Hours":0,"App":"Fluent","JobName":"cubevnc","JobId":"2058","Queue":"q_x86_share","Cluster":"aip","CPU_Hours":8.1277777777778,"User":"amd_app","Mem_GB_Hours":0.081691741943359,"runTime":0.58055555555556,"JobDescription":"fluent_test_14","GPU_Cost":0,"CPU_Cost":8.1277777777778,"Mem_Cost":0,"App_Cost":81.277777777778},{"EndDate":"2020\/06\/02","GPU_Hours":0,"App":"Fluent","JobName":"cubevnc","JobId":"2062","Queue":"q_x86_share","Cluster":"aip","CPU_Hours":9.7833333333333,"User":"amd_app","Mem_GB_Hours":0.14826965332031,"runTime":0.48916666666667,"JobDescription":"fluent_test_20","GPU_Cost":0,"CPU_Cost":9.7833333333333,"Mem_Cost":0,"App_Cost":97.833333333333},{"EndDate":"2020\/06\/02","GPU_Hours":0,"App":"LS-DYNA-R10single","JobName":"\/home\/export\/online1\/amd_app\/dzj\/twocars\/ls-dyna\/Caravan-V03c-2400k-main-shell16-10ms.k","JobId":"2046","Queue":"q_x86_share","Cluster":"aip","CPU_Hours":23.813333333333,"User":"amd_app","Mem_GB_Hours":0.018043518066406,"runTime":0.99222222222222,"JobDescription":"Caravan-V03c-2400k-main-shell16-10ms.k","GPU_Cost":0,"CPU_Cost":23.813333333333,"Mem_Cost":0,"App_Cost":0},{"EndDate":"2020\/06\/02","GPU_Hours":0,"App":"Fluent","JobName":"cubevnc","JobId":"2063","Queue":"q_x86_share","Cluster":"aip","CPU_Hours":10.486666666667,"User":"amd_app","Mem_GB_Hours":0.081684112548828,"runTime":0.47666666666667,"JobDescription":"fluent_test_22","GPU_Cost":0,"CPU_Cost":10.486666666667,"Mem_Cost":0,"App_Cost":104.86666666667},{"EndDate":"2020\/06\/02","GPU_Hours":0,"App":"Fluent","JobName":"cubevnc","JobId":"2050","Queue":"q_x86_share","Cluster":"aip","CPU_Hours":7.5088888888889,"User":"amd_app","Mem_GB_Hours":0.081764221191406,"runTime":0.93861111111111,"JobDescription":"fluent_test_5","GPU_Cost":0,"CPU_Cost":7.5088888888889,"Mem_Cost":0,"App_Cost":75.088888888889},{"EndDate":"2020\/06\/02","GPU_Hours":0,"App":"Paraviewserver","JobName":"","JobId":"2041","Queue":"q_x86_share","Cluster":"aip","CPU_Hours":118.38,"User":"amd_app","Mem_GB_Hours":0.0054359436035156,"runTime":1.6441666666667,"JobDescription":"Paraviewserver","GPU_Cost":0,"CPU_Cost":118.38,"Mem_Cost":0,"App_Cost":0},{"EndDate":"2020\/06\/02","GPU_Hours":0,"App":"Fluent","JobName":"cubevnc","JobId":"2057","Queue":"q_x86_share","Cluster":"aip","CPU_Hours":7.2033333333333,"User":"amd_app","Mem_GB_Hours":0.082603454589844,"runTime":1.2005555555556,"JobDescription":"fluent_test_6","GPU_Cost":0,"CPU_Cost":7.2033333333333,"Mem_Cost":0,"App_Cost":72.033333333333},{"EndDate":"2020\/06\/02","GPU_Hours":0,"App":"Fluent","JobName":"cubevnc","JobId":"2071","Queue":"q_x86_share","Cluster":"aip","CPU_Hours":8.78,"User":"amd_app","Mem_GB_Hours":0.16048049926758,"runTime":0.48777777777778,"JobDescription":"fluent_test_18","GPU_Cost":0,"CPU_Cost":8.78,"Mem_Cost":0,"App_Cost":87.8},{"EndDate":"2020\/06\/02","GPU_Hours":0,"App":"Fluent","JobName":"cubevnc","JobId":"2076","Queue":"q_x86_share","Cluster":"aip","CPU_Hours":2.9577777777778,"User":"amd_app","Mem_GB_Hours":0.083789825439453,"runTime":0.36972222222222,"JobDescription":"fluent_test_5","GPU_Cost":0,"CPU_Cost":2.9577777777778,"Mem_Cost":0,"App_Cost":29.577777777778},{"EndDate":"2020\/06\/02","GPU_Hours":0,"App":"Fluent","JobName":"cubevnc","JobId":"2074","Queue":"q_x86_share","Cluster":"aip","CPU_Hours":5.1533333333333,"User":"amd_app","Mem_GB_Hours":0.081462860107422,"runTime":0.42944444444444,"JobDescription":"fluent_test_12","GPU_Cost":0,"CPU_Cost":5.1533333333333,"Mem_Cost":0,"App_Cost":51.533333333333},{"EndDate":"2020\/06\/02","GPU_Hours":0,"App":"Fluent","JobName":"cubevnc","JobId":"2070","Queue":"q_x86_share","Cluster":"aip","CPU_Hours":9.8055555555556,"User":"amd_app","Mem_GB_Hours":0.087078094482422,"runTime":0.49027777777778,"JobDescription":"fluent_test_20","GPU_Cost":0,"CPU_Cost":9.8055555555556,"Mem_Cost":0,"App_Cost":98.055555555556},{"EndDate":"2020\/06\/02","GPU_Hours":0,"App":"Fluent","JobName":"cubevnc","JobId":"2069","Queue":"q_x86_share","Cluster":"aip","CPU_Hours":10.847222222222,"User":"amd_app","Mem_GB_Hours":0.086639404296875,"runTime":0.49305555555556,"JobDescription":"fluent_test_22","GPU_Cost":0,"CPU_Cost":10.847222222222,"Mem_Cost":0,"App_Cost":108.47222222222},{"EndDate":"2020\/06\/02","GPU_Hours":0,"App":"Fluent","JobName":"cubevnc","JobId":"2068","Queue":"q_x86_share","Cluster":"aip","CPU_Hours":11.906666666667,"User":"amd_app","Mem_GB_Hours":0.081802368164062,"runTime":0.49611111111111,"JobDescription":"fluent_test_24","GPU_Cost":0,"CPU_Cost":11.906666666667,"Mem_Cost":0,"App_Cost":119.06666666667},{"EndDate":"2020\/06\/02","GPU_Hours":0,"App":"Fluent","JobName":"cubevnc","JobId":"2072","Queue":"q_x86_share","Cluster":"aip","CPU_Hours":7.7511111111111,"User":"amd_app","Mem_GB_Hours":0.097522735595703,"runTime":0.48444444444444,"JobDescription":"fluent_test_16","GPU_Cost":0,"CPU_Cost":7.7511111111111,"Mem_Cost":0,"App_Cost":77.511111111111},{"EndDate":"2020\/06\/02","GPU_Hours":0,"App":"Fluent","JobName":"cubevnc","JobId":"2075","Queue":"q_x86_share","Cluster":"aip","CPU_Hours":4.2611111111111,"User":"amd_app","Mem_GB_Hours":0.162841796875,"runTime":0.42611111111111,"JobDescription":"fluent_test_10","GPU_Cost":0,"CPU_Cost":4.2611111111111,"Mem_Cost":0,"App_Cost":42.611111111111},{"EndDate":"2020\/06\/02","GPU_Hours":0,"App":"Fluent","JobName":"cubevnc","JobId":"2073","Queue":"q_x86_share","Cluster":"aip","CPU_Hours":6.755,"User":"amd_app","Mem_GB_Hours":0.16270446777344,"runTime":0.4825,"JobDescription":"fluent_test_14","GPU_Cost":0,"CPU_Cost":6.755,"Mem_Cost":0,"App_Cost":67.55},{"EndDate":"2020\/06\/02","GPU_Hours":0,"App":"Fluent","JobName":"cubevnc","JobId":"2079","Queue":"q_x86_share","Cluster":"aip","CPU_Hours":0.18666666666667,"User":"amd_app","Mem_GB_Hours":0.0748291015625,"runTime":0.0077777777777778,"JobDescription":"fluent_test_24","GPU_Cost":0,"CPU_Cost":0.18666666666667,"Mem_Cost":0,"App_Cost":1.8666666666667},{"EndDate":"2020\/06\/02","GPU_Hours":0,"App":"Fluent","JobName":"cubevnc","JobId":"2080","Queue":"q_x86_share","Cluster":"aip","CPU_Hours":0.12666666666667,"User":"amd_app","Mem_GB_Hours":0.070415496826172,"runTime":0.0052777777777778,"JobDescription":"fluent_test_24","GPU_Cost":0,"CPU_Cost":0.12666666666667,"Mem_Cost":0,"App_Cost":1.2666666666667},{"EndDate":"2020\/06\/02","GPU_Hours":0,"App":"Fluent","JobName":"cubevnc","JobId":"2044","Queue":"q_x86_share","Cluster":"aip","CPU_Hours":6.6655555555556,"User":"amd_app","Mem_GB_Hours":0.081890106201172,"runTime":1.6663888888889,"JobDescription":"fluent_test_3","GPU_Cost":0,"CPU_Cost":6.6655555555556,"Mem_Cost":0,"App_Cost":66.655555555556},{"EndDate":"2020\/06\/02","GPU_Hours":0,"App":"Fluent","JobName":"cubevnc","JobId":"2081","Queue":"q_x86_share","Cluster":"aip","CPU_Hours":0.19444444444444,"User":"amd_app","Mem_GB_Hours":0.070446014404297,"runTime":0.0097222222222222,"JobDescription":"fluent_test_20","GPU_Cost":0,"CPU_Cost":0.19444444444444,"Mem_Cost":0,"App_Cost":1.9444444444444},{"EndDate":"2020\/06\/02","GPU_Hours":0,"App":"Fluent","JobName":"cubevnc","JobId":"2082","Queue":"q_x86_share","Cluster":"aip","CPU_Hours":0.18666666666667,"User":"amd_app","Mem_GB_Hours":0.070465087890625,"runTime":0.0077777777777778,"JobDescription":"fluent_test_24","GPU_Cost":0,"CPU_Cost":0.18666666666667,"Mem_Cost":0,"App_Cost":1.8666666666667},{"EndDate":"2020\/06\/02","GPU_Hours":0,"App":"Fluent","JobName":"cubevnc","JobId":"2084","Queue":"q_x86_share","Cluster":"aip","CPU_Hours":2.2666666666667,"User":"amd_app","Mem_GB_Hours":0.1556282043457,"runTime":0.047222222222222,"JobDescription":"fluent_test_48","GPU_Cost":0,"CPU_Cost":2.2666666666667,"Mem_Cost":0,"App_Cost":22.666666666667},{"EndDate":"2020\/06\/02","GPU_Hours":0,"App":"Fluent","JobName":"cubevnc","JobId":"2083","Queue":"q_x86_share","Cluster":"aip","CPU_Hours":1.86,"User":"amd_app","Mem_GB_Hours":0.084907531738281,"runTime":0.0775,"JobDescription":"fluent_test_24","GPU_Cost":0,"CPU_Cost":1.86,"Mem_Cost":0,"App_Cost":18.6},{"EndDate":"2020\/06\/02","GPU_Hours":0,"App":"Fluent","JobName":"cubevnc","JobId":"2086","Queue":"q_x86_share","Cluster":"aip","CPU_Hours":13.813333333333,"User":"amd_app","Mem_GB_Hours":0.0061378479003906,"runTime":0.21583333333333,"JobDescription":"fluent_test_64","GPU_Cost":0,"CPU_Cost":13.813333333333,"Mem_Cost":0,"App_Cost":138.13333333333},{"EndDate":"2020\/06\/02","GPU_Hours":0,"App":"ParaView","JobName":"cubevnc","JobId":"2039","Queue":"q_x86_expr","Cluster":"aip","CPU_Hours":2.2852777777778,"User":"amd_app","Mem_GB_Hours":0.46037673950195,"runTime":2.2852777777778,"JobDescription":"paraviewtest","GPU_Cost":0,"CPU_Cost":2.2852777777778,"Mem_Cost":0,"App_Cost":0},{"EndDate":"2020\/06\/02","GPU_Hours":0,"App":"TankSimulator","JobName":"cubevnc","JobId":"2066","Queue":"q_x86_expr","Cluster":"aip","CPU_Hours":1.5558333333333,"User":"amd_app","Mem_GB_Hours":0.10653686523438,"runTime":1.5558333333333,"JobDescription":"testnew02","GPU_Cost":0,"CPU_Cost":1.5558333333333,"Mem_Cost":0,"App_Cost":7.7791666666667},{"EndDate":"2020\/06\/02","GPU_Hours":0,"App":"Paraviewserver","JobName":"","JobId":"2078","Queue":"q_x86_share","Cluster":"aip","CPU_Hours":16.066666666667,"User":"amd_app","Mem_GB_Hours":0.019405364990234,"runTime":0.66944444444444,"JobDescription":"Paraviewserver","GPU_Cost":0,"CPU_Cost":16.066666666667,"Mem_Cost":0,"App_Cost":0},{"EndDate":"2020\/06\/02","GPU_Hours":0,"App":"Fluent","JobName":"cubevnc","JobId":"2085","Queue":"q_x86_share","Cluster":"aip","CPU_Hours":12.186666666667,"User":"amd_app","Mem_GB_Hours":0.087665557861328,"runTime":0.38083333333333,"JobDescription":"fluent_test_32","GPU_Cost":0,"CPU_Cost":12.186666666667,"Mem_Cost":0,"App_Cost":121.86666666667},{"EndDate":"2020\/06\/02","GPU_Hours":0,"App":"TankSimulator","JobName":"cubevnc","JobId":"2054","Queue":"q_x86_expr","Cluster":"aip","CPU_Hours":2.2558333333333,"User":"amd_app","Mem_GB_Hours":0.13152694702148,"runTime":2.2558333333333,"JobDescription":"Tanktest01","GPU_Cost":0,"CPU_Cost":2.2558333333333,"Mem_Cost":0,"App_Cost":11.279166666667},{"EndDate":"2020\/06\/02","GPU_Hours":0,"App":"Abaqus","JobName":"cubevnc","JobId":"2048","Queue":"q_x86_expr","Cluster":"aip","CPU_Hours":2.37,"User":"amd_app","Mem_GB_Hours":0.45928573608398,"runTime":2.37,"JobDescription":"gasket_seal","GPU_Cost":0,"CPU_Cost":2.37,"Mem_Cost":0,"App_Cost":0},{"EndDate":"2020\/06\/02","GPU_Hours":0,"App":"Abaqus","JobName":"cubevnc","JobId":"2042","Queue":"q_x86_expr","Cluster":"aip","CPU_Hours":2.5644444444444,"User":"amd_app","Mem_GB_Hours":2.1511077880859,"runTime":2.5644444444444,"JobDescription":"twocars","GPU_Cost":0,"CPU_Cost":2.5644444444444,"Mem_Cost":0,"App_Cost":0},{"EndDate":"2020\/06\/02","GPU_Hours":0,"App":"ParaView","JobName":"cubevnc","JobId":"2049","Queue":"q_x86_expr","Cluster":"aip","CPU_Hours":2.3694444444444,"User":"amd_app","Mem_GB_Hours":0.39091110229492,"runTime":2.3694444444444,"JobDescription":"paraviewtest02","GPU_Cost":0,"CPU_Cost":2.3694444444444,"Mem_Cost":0,"App_Cost":0},{"EndDate":"2020\/06\/03","GPU_Hours":0,"App":"Fluent","JobName":"cubevnc","JobId":"2040","Queue":"q_x86_share","Cluster":"aip","CPU_Hours":16.556666666667,"User":"amd_app","Mem_GB_Hours":0.083808898925781,"runTime":16.556666666667,"JobDescription":"fluent_test_1","GPU_Cost":0,"CPU_Cost":16.556666666667,"Mem_Cost":0,"App_Cost":165.56666666667},{"EndDate":"2020\/06\/03","GPU_Hours":0,"App":"ParaView","JobName":"cubevnc","JobId":"2064","Queue":"q_x86_expr","Cluster":"aip","CPU_Hours":16.328333333333,"User":"amd_app","Mem_GB_Hours":0.34879684448242,"runTime":16.328333333333,"JobDescription":"new03","GPU_Cost":0,"CPU_Cost":16.328333333333,"Mem_Cost":0,"App_Cost":0},{"EndDate":"2020\/06\/03","GPU_Hours":0,"App":"LS-DYNA-R10double","JobName":"\/home\/export\/online1\/amd_app\/jobdata\/default\/Cancrush\/4.2_Buckling_of_Beer_Can.key","JobId":"2102","Queue":"q_x86_share","Cluster":"aip","CPU_Hours":0.49333333333333,"User":"amd_app","Mem_GB_Hours":0,"runTime":0.12333333333333,"JobDescription":"4.2_Buckling_of_Beer_Can.key","GPU_Cost":0,"CPU_Cost":0.49333333333333,"Mem_Cost":0,"App_Cost":0},{"EndDate":"2020\/06\/03","GPU_Hours":0,"App":"TankSimulator","JobName":"cubevnc","JobId":"2100","Queue":"q_x86_expr","Cluster":"aip","CPU_Hours":1.4086111111111,"User":"amd_app","Mem_GB_Hours":0.19059753417969,"runTime":1.4086111111111,"JobDescription":"testnew01","GPU_Cost":0,"CPU_Cost":1.4086111111111,"Mem_Cost":0,"App_Cost":7.0430555555556},{"EndDate":"2020\/06\/03","GPU_Hours":0,"App":"","JobName":"swof_\/home\/export\/base\/nsccwuxi_amd\/amd_app\/online1\/ZHL\/Project\/SimGO\/OF\/pimpleFoam\/TJunction\/TJunction_Mesh4090","JobId":"2105","Queue":"q_x86_expr","Cluster":"aip","CPU_Hours":0.011388888888889,"User":"amd_app","Mem_GB_Hours":0.016960144042969,"runTime":0.011388888888889,"JobDescription":"","GPU_Cost":0,"CPU_Cost":0.011388888888889,"Mem_Cost":0,"App_Cost":0},{"EndDate":"2020\/06\/03","GPU_Hours":0,"App":"","JobName":"swof_\/home\/export\/base\/nsccwuxi_amd\/amd_app\/online1\/ZHL\/Project\/SimGO\/OF\/pimpleFoam\/TJunction_Check3471","JobId":"2106","Queue":"q_x86_expr","Cluster":"aip","CPU_Hours":0.014722222222222,"User":"amd_app","Mem_GB_Hours":0.010578155517578,"runTime":0.014722222222222,"JobDescription":"","GPU_Cost":0,"CPU_Cost":0.014722222222222,"Mem_Cost":0,"App_Cost":0},{"EndDate":"2020\/06\/03","GPU_Hours":0,"App":"","JobName":"swof_\/home\/export\/base\/nsccwuxi_amd\/amd_app\/online1\/ZHL\/Project\/SimGO\/OF\/pimpleFoam\/TJunction_Check61946","JobId":"2107","Queue":"q_x86_expr","Cluster":"aip","CPU_Hours":0.0033333333333333,"User":"amd_app","Mem_GB_Hours":0.010566711425781,"runTime":0.0033333333333333,"JobDescription":"","GPU_Cost":0,"CPU_Cost":0.0033333333333333,"Mem_Cost":0,"App_Cost":0},{"EndDate":"2020\/06\/03","GPU_Hours":0,"App":"Abaqus","JobName":"cubevnc","JobId":"2103","Queue":"q_x86_expr","Cluster":"aip","CPU_Hours":5.2555555555556,"User":"amd_app","Mem_GB_Hours":0.5013427734375,"runTime":5.2555555555556,"JobDescription":"Canbuckling","GPU_Cost":0,"CPU_Cost":5.2555555555556,"Mem_Cost":0,"App_Cost":0},{"EndDate":"2020\/06\/03","GPU_Hours":0,"App":"Abaqus2017","JobName":"Job-090945","JobId":"2104","Queue":"q_x86_share","Cluster":"aip","CPU_Hours":21.246666666667,"User":"amd_app","Mem_GB_Hours":0.018707275390625,"runTime":5.3116666666667,"JobDescription":"Job-090945-BucklingCan","GPU_Cost":0,"CPU_Cost":21.246666666667,"Mem_Cost":0,"App_Cost":0},{"EndDate":"2020\/06\/03","GPU_Hours":0,"App":"LSPrePost","JobName":"cubevnc","JobId":"2101","Queue":"q_x86_expr","Cluster":"aip","CPU_Hours":5.5180555555556,"User":"amd_app","Mem_GB_Hours":0.36862564086914,"runTime":5.5180555555556,"JobDescription":"Cancrush","GPU_Cost":0,"CPU_Cost":5.5180555555556,"Mem_Cost":0,"App_Cost":0},{"EndDate":"2020\/06\/03","GPU_Hours":0,"App":"Abaqus","JobName":"cubevnc","JobId":"2108","Queue":"q_x86_expr","Cluster":"aip","CPU_Hours":0.18,"User":"amd_app","Mem_GB_Hours":0.44655609130859,"runTime":0.18,"JobDescription":"Canbuckling","GPU_Cost":0,"CPU_Cost":0.18,"Mem_Cost":0,"App_Cost":0},{"EndDate":"2020\/06\/04","GPU_Hours":0,"App":"Paraviewserver","JobName":"","JobId":"2109","Queue":"q_x86_share","Cluster":"aip","CPU_Hours":766.90666666667,"User":"amd_app","Mem_GB_Hours":0.0053596496582031,"runTime":15.977222222222,"JobDescription":"Paraviewserver","GPU_Cost":0,"CPU_Cost":766.90666666667,"Mem_Cost":0,"App_Cost":0},{"EndDate":"2020\/06\/04","GPU_Hours":0,"App":"ParaView","JobName":"cubevnc","JobId":"2110","Queue":"q_x86_expr","Cluster":"aip","CPU_Hours":15.974444444444,"User":"amd_app","Mem_GB_Hours":0.4568977355957,"runTime":15.974444444444,"JobDescription":"paraviewtest","GPU_Cost":0,"CPU_Cost":15.974444444444,"Mem_Cost":0,"App_Cost":0},{"EndDate":"2020\/06\/04","GPU_Hours":0,"App":"LSPrePost","JobName":"cubevnc","JobId":"2111","Queue":"q_x86_expr","Cluster":"aip","CPU_Hours":0.0036111111111111,"User":"amd_app","Mem_GB_Hours":0.26176071166992,"runTime":0.0036111111111111,"JobDescription":"Cancrush","GPU_Cost":0,"CPU_Cost":0.0036111111111111,"Mem_Cost":0,"App_Cost":0},{"EndDate":"2020\/06\/04","GPU_Hours":0,"App":"Abaqus","JobName":"cubevnc","JobId":"2112","Queue":"q_x86_expr","Cluster":"aip","CPU_Hours":0.0036111111111111,"User":"amd_app","Mem_GB_Hours":0.34260177612305,"runTime":0.0036111111111111,"JobDescription":"Canbuckling","GPU_Cost":0,"CPU_Cost":0.0036111111111111,"Mem_Cost":0,"App_Cost":0},{"EndDate":"2020\/06\/04","GPU_Hours":0,"App":"Abaqus2017","JobName":"Job-103151","JobId":"2114","Queue":"q_x86_expr","Cluster":"aip","CPU_Hours":0.65472222222222,"User":"amd_app","Mem_GB_Hours":0.01190185546875,"runTime":0.65472222222222,"JobDescription":"Job-103151-BucklingCan","GPU_Cost":0,"CPU_Cost":0.65472222222222,"Mem_Cost":0,"App_Cost":0},{"EndDate":"2020\/06\/04","GPU_Hours":0,"App":"Abaqus","JobName":"cubevnc","JobId":"2113","Queue":"q_x86_expr","Cluster":"aip","CPU_Hours":4.5047222222222,"User":"amd_app","Mem_GB_Hours":0.60039520263672,"runTime":4.5047222222222,"JobDescription":"Canbuckling","GPU_Cost":0,"CPU_Cost":4.5047222222222,"Mem_Cost":0,"App_Cost":0},{"EndDate":"2020\/06\/04","GPU_Hours":0,"App":"ParaView","JobName":"cubevnc","JobId":"2115","Queue":"q_x86_expr","Cluster":"aip","CPU_Hours":4.2116666666667,"User":"amd_app","Mem_GB_Hours":0.47050476074219,"runTime":4.2116666666667,"JobDescription":"paraviewtest02","GPU_Cost":0,"CPU_Cost":4.2116666666667,"Mem_Cost":0,"App_Cost":0},{"EndDate":"2020\/06\/04","GPU_Hours":0,"App":"","JobName":"swof_\/home\/export\/base\/nsccwuxi_amd\/amd_app\/online1\/ZHL\/Project\/SimGO\/OF\/pimpleFoam\/pitzDaily\/pitzDaily_Mesh1644","JobId":"2121","Queue":"q_x86_expr","Cluster":"aip","CPU_Hours":0.0047222222222222,"User":"amd_app","Mem_GB_Hours":0.018718719482422,"runTime":0.0047222222222222,"JobDescription":"","GPU_Cost":0,"CPU_Cost":0.0047222222222222,"Mem_Cost":0,"App_Cost":0},{"EndDate":"2020\/06\/04","GPU_Hours":0,"App":"","JobName":"swof_\/home\/export\/base\/nsccwuxi_amd\/amd_app\/online1\/ZHL\/Project\/SimGO\/OF\/pimpleFoam\/pitzDaily_Check19670","JobId":"2122","Queue":"q_x86_expr","Cluster":"aip","CPU_Hours":0.012777777777778,"User":"amd_app","Mem_GB_Hours":0.018711090087891,"runTime":0.012777777777778,"JobDescription":"","GPU_Cost":0,"CPU_Cost":0.012777777777778,"Mem_Cost":0,"App_Cost":0},{"EndDate":"2020\/06\/04","GPU_Hours":0,"App":"Fluent","JobName":"cubevnc","JobId":"2043","Queue":"q_x86_share","Cluster":"aip","CPU_Hours":101.63611111111,"User":"amd_app","Mem_GB_Hours":0.090839385986328,"runTime":50.818055555556,"JobDescription":"fluent_test_2","GPU_Cost":0,"CPU_Cost":101.63611111111,"Mem_Cost":0,"App_Cost":1016.3611111111},{"EndDate":"2020\/06\/05","GPU_Hours":0,"App":"Abaqus2017","JobName":"Job-150855","JobId":"2118","Queue":"q_x86_share","Cluster":"aip","CPU_Hours":47.015555555556,"User":"amd_app","Mem_GB_Hours":0.011890411376953,"runTime":11.753888888889,"JobDescription":"Job-150855-Job-103151","GPU_Cost":0,"CPU_Cost":47.015555555556,"Mem_Cost":0,"App_Cost":0},{"EndDate":"2020\/06\/05","GPU_Hours":0,"App":"ParaView","JobName":"cubevnc","JobId":"2119","Queue":"q_x86_expr","Cluster":"aip","CPU_Hours":17.011944444444,"User":"amd_app","Mem_GB_Hours":0.47370910644531,"runTime":17.011944444444,"JobDescription":"paraviewtest02","GPU_Cost":0,"CPU_Cost":17.011944444444,"Mem_Cost":0,"App_Cost":0},{"EndDate":"2020\/06\/05","GPU_Hours":0,"App":"Abaqus","JobName":"cubevnc","JobId":"2117","Queue":"q_x86_expr","Cluster":"aip","CPU_Hours":18.257777777778,"User":"amd_app","Mem_GB_Hours":0.64218902587891,"runTime":18.257777777778,"JobDescription":"Canbuckling","GPU_Cost":0,"CPU_Cost":18.257777777778,"Mem_Cost":0,"App_Cost":0},{"EndDate":"2020\/06\/05","GPU_Hours":0,"App":"ParaView","JobName":"cubevnc","JobId":"2124","Queue":"q_x86_expr","Cluster":"aip","CPU_Hours":0.70972222222222,"User":"amd_app","Mem_GB_Hours":0.49716567993164,"runTime":0.70972222222222,"JobDescription":"paraviewtest","GPU_Cost":0,"CPU_Cost":0.70972222222222,"Mem_Cost":0,"App_Cost":0},{"EndDate":"2020\/06\/05","GPU_Hours":0,"App":"Abaqus","JobName":"cubevnc","JobId":"2123","Queue":"q_x86_expr","Cluster":"aip","CPU_Hours":1.4286111111111,"User":"amd_app","Mem_GB_Hours":0.64970397949219,"runTime":1.4286111111111,"JobDescription":"Canbuckling","GPU_Cost":0,"CPU_Cost":1.4286111111111,"Mem_Cost":0,"App_Cost":0},{"EndDate":"2020\/06\/05","GPU_Hours":0,"App":"LSPrePost","JobName":"cubevnc","JobId":"2116","Queue":"q_x86_expr","Cluster":"aip","CPU_Hours":20.062222222222,"User":"amd_app","Mem_GB_Hours":0.32655715942383,"runTime":20.062222222222,"JobDescription":"Cancrush","GPU_Cost":0,"CPU_Cost":20.062222222222,"Mem_Cost":0,"App_Cost":0},{"EndDate":"2020\/06\/05","GPU_Hours":0,"App":"ParaView","JobName":"cubevnc","JobId":"2126","Queue":"q_x86_expr","Cluster":"aip","CPU_Hours":2.3977777777778,"User":"amd_app","Mem_GB_Hours":0.40707015991211,"runTime":2.3977777777778,"JobDescription":"paraviewtest","GPU_Cost":0,"CPU_Cost":2.3977777777778,"Mem_Cost":0,"App_Cost":0},{"EndDate":"2020\/06\/05","GPU_Hours":0,"App":"Abaqus","JobName":"cubevnc","JobId":"2125","Queue":"q_x86_expr","Cluster":"aip","CPU_Hours":3.1238888888889,"User":"amd_app","Mem_GB_Hours":0.61392593383789,"runTime":3.1238888888889,"JobDescription":"Canbuckling","GPU_Cost":0,"CPU_Cost":3.1238888888889,"Mem_Cost":0,"App_Cost":0},{"EndDate":"2020\/06\/05","GPU_Hours":0,"App":"TankSimulator","JobName":"cubevnc","JobId":"2130","Queue":"q_x86_expr","Cluster":"aip","CPU_Hours":1.6630555555556,"User":"amd_app","Mem_GB_Hours":0.13335037231445,"runTime":1.6630555555556,"JobDescription":"testnew02","GPU_Cost":0,"CPU_Cost":1.6630555555556,"Mem_Cost":0,"App_Cost":8.3152777777778},{"EndDate":"2020\/06\/05","GPU_Hours":0,"App":"ParaView","JobName":"cubevnc","JobId":"2127","Queue":"q_x86_expr","Cluster":"aip","CPU_Hours":3.5119444444444,"User":"amd_app","Mem_GB_Hours":0.40916061401367,"runTime":3.5119444444444,"JobDescription":"new03","GPU_Cost":0,"CPU_Cost":3.5119444444444,"Mem_Cost":0,"App_Cost":0},{"EndDate":"2020\/06\/05","GPU_Hours":0,"App":"LSPrePost","JobName":"cubevnc","JobId":"2129","Queue":"q_x86_expr","Cluster":"aip","CPU_Hours":2.7505555555556,"User":"amd_app","Mem_GB_Hours":0.33539962768555,"runTime":2.7505555555556,"JobDescription":"Cancrush","GPU_Cost":0,"CPU_Cost":2.7505555555556,"Mem_Cost":0,"App_Cost":0},{"EndDate":"2020\/06\/05","GPU_Hours":0,"App":"Abaqus","JobName":"cubevnc","JobId":"2128","Queue":"q_x86_expr","Cluster":"aip","CPU_Hours":3.0133333333333,"User":"amd_app","Mem_GB_Hours":0.5847282409668,"runTime":3.0133333333333,"JobDescription":"Canbuckling","GPU_Cost":0,"CPU_Cost":3.0133333333333,"Mem_Cost":0,"App_Cost":0},{"EndDate":"2020\/06\/08","GPU_Hours":0,"App":"TankSimulator","JobName":"cubevnc","JobId":"2135","Queue":"q_x86_expr","Cluster":"aip","CPU_Hours":0.035277777777778,"User":"amd_app","Mem_GB_Hours":0.16073989868164,"runTime":0.035277777777778,"JobDescription":"testnew02","GPU_Cost":0,"CPU_Cost":0.035277777777778,"Mem_Cost":0,"App_Cost":0.17638888888889},{"EndDate":"2020\/06\/08","GPU_Hours":0,"App":"PointWise","JobName":"cubevnc","JobId":"2137","Queue":"q_x86_expr","Cluster":"aip","CPU_Hours":0.0080555555555556,"User":"amd_app","Mem_GB_Hours":0.32663726806641,"runTime":0.0080555555555556,"JobDescription":"pointwise_test","GPU_Cost":0,"CPU_Cost":0.0080555555555556,"Mem_Cost":0,"App_Cost":0},{"EndDate":"2020\/06\/08","GPU_Hours":0,"App":"StarCCM","JobName":"cubevnc","JobId":"2138","Queue":"q_x86_share","Cluster":"aip","CPU_Hours":1.2438888888889,"User":"amd_app","Mem_GB_Hours":0.65179443359375,"runTime":1.2438888888889,"JobDescription":"2","GPU_Cost":0,"CPU_Cost":1.2438888888889,"Mem_Cost":0,"App_Cost":0},{"EndDate":"2020\/06\/08","GPU_Hours":0,"App":"LSPrePost","JobName":"cubevnc","JobId":"2140","Queue":"q_x86_expr","Cluster":"aip","CPU_Hours":0.053611111111111,"User":"amd_app","Mem_GB_Hours":0.38586807250977,"runTime":0.053611111111111,"JobDescription":"3","GPU_Cost":0,"CPU_Cost":0.053611111111111,"Mem_Cost":0,"App_Cost":0},{"EndDate":"2020\/06\/08","GPU_Hours":0,"App":"TankSimulator","JobName":"cubevnc","JobId":"2136","Queue":"q_x86_expr","Cluster":"aip","CPU_Hours":7.5469444444444,"User":"amd_app","Mem_GB_Hours":0.20377731323242,"runTime":7.5469444444444,"JobDescription":"version2","GPU_Cost":0,"CPU_Cost":7.5469444444444,"Mem_Cost":0,"App_Cost":37.734722222222},{"EndDate":"2020\/06\/09","GPU_Hours":0,"App":"StarCCM","JobName":"cubevnc","JobId":"2139","Queue":"q_x86_expr","Cluster":"aip","CPU_Hours":20.381666666667,"User":"amd_app","Mem_GB_Hours":0.78731155395508,"runTime":20.381666666667,"JobDescription":"starccm_test","GPU_Cost":0,"CPU_Cost":20.381666666667,"Mem_Cost":0,"App_Cost":0},{"EndDate":"2020\/06\/09","GPU_Hours":0,"App":"StarCCM","JobName":"cubevnc","JobId":"2141","Queue":"q_x86_share","Cluster":"aip","CPU_Hours":0.0011111111111111,"User":"amd_app","Mem_GB_Hours":0.018547058105469,"runTime":0.0011111111111111,"JobDescription":"starccm_test","GPU_Cost":0,"CPU_Cost":0.0011111111111111,"Mem_Cost":0,"App_Cost":0},{"EndDate":"2020\/06\/10","GPU_Hours":0,"App":"ICEM-CFD","JobName":"cubevnc","JobId":"2142","Queue":"q_x86_expr","Cluster":"aip","CPU_Hours":0.0080555555555556,"User":"amd_app","Mem_GB_Hours":0.23091506958008,"runTime":0.0080555555555556,"JobDescription":"test","GPU_Cost":0,"CPU_Cost":0.0080555555555556,"Mem_Cost":0,"App_Cost":0},{"EndDate":"2020\/06\/10","GPU_Hours":0,"App":"ICEM-CFD","JobName":"cubevnc","JobId":"2143","Queue":"q_x86_expr","Cluster":"aip","CPU_Hours":0.095555555555556,"User":"amd_app","Mem_GB_Hours":0.27182769775391,"runTime":0.095555555555556,"JobDescription":"test","GPU_Cost":0,"CPU_Cost":0.095555555555556,"Mem_Cost":0,"App_Cost":0},{"EndDate":"2020\/06\/11","GPU_Hours":0,"App":"ParaView","JobName":"cubevnc","JobId":"2148","Queue":"q_x86_expr","Cluster":"aip","CPU_Hours":0.0041666666666667,"User":"amd_app","Mem_GB_Hours":0.30894088745117,"runTime":0.0041666666666667,"JobDescription":"pa_test","GPU_Cost":0,"CPU_Cost":0.0041666666666667,"Mem_Cost":0,"App_Cost":0},{"EndDate":"2020\/06\/11","GPU_Hours":0,"App":"Fluent","JobName":"cubevnc","JobId":"2147","Queue":"q_x86_share","Cluster":"aip","CPU_Hours":0.041111111111111,"User":"amd_app","Mem_GB_Hours":0.085430145263672,"runTime":0.041111111111111,"JobDescription":"test","GPU_Cost":0,"CPU_Cost":0.041111111111111,"Mem_Cost":0,"App_Cost":0.41111111111111},{"EndDate":"2020\/06\/11","GPU_Hours":0,"App":"ParaView","JobName":"cubevnc","JobId":"2152","Queue":"q_x86_share","Cluster":"aip","CPU_Hours":0.77305555555556,"User":"amd_app","Mem_GB_Hours":0.49267959594727,"runTime":0.77305555555556,"JobDescription":"testper","GPU_Cost":0,"CPU_Cost":0.77305555555556,"Mem_Cost":0,"App_Cost":0},{"EndDate":"2020\/06\/11","GPU_Hours":0,"App":"ParaView","JobName":"cubevnc","JobId":"2155","Queue":"q_x86_expr","Cluster":"aip","CPU_Hours":0.0047222222222222,"User":"amd_app","Mem_GB_Hours":0.37216186523438,"runTime":0.0047222222222222,"JobDescription":"fluent_test","GPU_Cost":0,"CPU_Cost":0.0047222222222222,"Mem_Cost":0,"App_Cost":0},{"EndDate":"2020\/06\/12","GPU_Hours":0,"App":"ParaView","JobName":"cubevnc","JobId":"2160","Queue":"q_x86_expr","Cluster":"aip","CPU_Hours":0.0066666666666667,"User":"amd_app","Mem_GB_Hours":0.38143157958984,"runTime":0.0066666666666667,"JobDescription":"testdai01","GPU_Cost":0,"CPU_Cost":0.0066666666666667,"Mem_Cost":0,"App_Cost":0},{"EndDate":"2020\/06\/12","GPU_Hours":0,"App":"LSPrePost","JobName":"cubevnc","JobId":"2161","Queue":"q_x86_expr","Cluster":"aip","CPU_Hours":0.0011111111111111,"User":"amd_app","Mem_GB_Hours":0.011371612548828,"runTime":0.0011111111111111,"JobDescription":"Cancrush","GPU_Cost":0,"CPU_Cost":0.0011111111111111,"Mem_Cost":0,"App_Cost":0},{"EndDate":"2020\/06\/12","GPU_Hours":0,"App":"LSPrePost","JobName":"cubevnc","JobId":"2162","Queue":"q_x86_expr","Cluster":"aip","CPU_Hours":0.060277777777778,"User":"amd_app","Mem_GB_Hours":0.38179397583008,"runTime":0.060277777777778,"JobDescription":"Cancrush","GPU_Cost":0,"CPU_Cost":0.060277777777778,"Mem_Cost":0,"App_Cost":0},{"EndDate":"2020\/06\/12","GPU_Hours":0,"App":"LS-DYNA-R10double","JobName":"\/home\/export\/online1\/amd_app\/jobdata\/default\/Cancrush\/4.2_Buckling_of_Beer_Can.key","JobId":"2164","Queue":"q_x86_expr","Cluster":"aip","CPU_Hours":0.28555555555556,"User":"amd_app","Mem_GB_Hours":0.018703460693359,"runTime":0.14277777777778,"JobDescription":"4.2_Buckling_of_Beer_Can.key","GPU_Cost":0,"CPU_Cost":0.28555555555556,"Mem_Cost":0,"App_Cost":0},{"EndDate":"2020\/06\/12","GPU_Hours":0,"App":"LS-DYNA-R9double","JobName":"\/home\/export\/online1\/amd_app\/jobdata\/default\/Cancrush\/4.2_Buckling_of_Beer_Can.key","JobId":"2165","Queue":"q_x86_expr","Cluster":"aip","CPU_Hours":0.20222222222222,"User":"amd_app","Mem_GB_Hours":0.018703460693359,"runTime":0.050555555555556,"JobDescription":"4.2_Buckling_of_Beer_Can.key","GPU_Cost":0,"CPU_Cost":0.20222222222222,"Mem_Cost":0,"App_Cost":0},{"EndDate":"2020\/06\/12","GPU_Hours":0,"App":"LS-DYNA-R10double","JobName":"\/home\/export\/online1\/amd_app\/jobdata\/default\/Cancrush\/4.2_Buckling_of_Beer_Can.key","JobId":"2166","Queue":"q_x86_expr","Cluster":"aip","CPU_Hours":0.1,"User":"amd_app","Mem_GB_Hours":0.018711090087891,"runTime":0.0041666666666667,"JobDescription":"4.2_Buckling_of_Beer_Can.key","GPU_Cost":0,"CPU_Cost":0.1,"Mem_Cost":0,"App_Cost":0},{"EndDate":"2020\/06\/12","GPU_Hours":0,"App":"LS-DYNA-R10single","JobName":"\/home\/export\/online1\/amd_app\/jobdata\/default\/twocarsnew\/Caravan-V03c-2400k-main-shell16-10ms.k","JobId":"2168","Queue":"q_x86_share","Cluster":"aip","CPU_Hours":3.0466666666667,"User":"amd_app","Mem_GB_Hours":0.018711090087891,"runTime":0.12694444444444,"JobDescription":"Caravan-V03c-2400k-main-shell16-10ms.k","GPU_Cost":0,"CPU_Cost":3.0466666666667,"Mem_Cost":0,"App_Cost":0},{"EndDate":"2020\/06\/12","GPU_Hours":0,"App":"LS-DYNA-R10double","JobName":"\/home\/export\/online1\/amd_app\/jobdata\/default\/twocarsnew\/Caravan-V03c-2400k-main-shell16-10ms.k","JobId":"2169","Queue":"q_x86_share","Cluster":"aip","CPU_Hours":0.67222222222222,"User":"amd_app","Mem_GB_Hours":0.018711090087891,"runTime":0.033611111111111,"JobDescription":"Caravan-V03c-2400k-main-shell16-10ms.k","GPU_Cost":0,"CPU_Cost":0.67222222222222,"Mem_Cost":0,"App_Cost":0},{"EndDate":"2020\/06\/12","GPU_Hours":0,"App":"LS-DYNA-R10double","JobName":"\/home\/export\/online1\/amd_app\/jobdata\/default\/twocarsnew\/Caravan-V03c-2400k-main-shell16-10ms.k","JobId":"2170","Queue":"q_x86_share","Cluster":"aip","CPU_Hours":0.21333333333333,"User":"amd_app","Mem_GB_Hours":0.018707275390625,"runTime":0.0044444444444444,"JobDescription":"Caravan-V03c-2400k-main-shell16-10ms.k","GPU_Cost":0,"CPU_Cost":0.21333333333333,"Mem_Cost":0,"App_Cost":0},{"EndDate":"2020\/06\/12","GPU_Hours":0,"App":"LS-DYNA-R10double","JobName":"\/home\/export\/online1\/amd_app\/jobdata\/default\/twocarsnew\/Caravan-V03c-2400k-main-shell16-10ms.k","JobId":"2171","Queue":"q_x86_expr","Cluster":"aip","CPU_Hours":0.42666666666667,"User":"amd_app","Mem_GB_Hours":0.018703460693359,"runTime":0.017777777777778,"JobDescription":"Caravan-V03c-2400k-main-shell16-10ms.k","GPU_Cost":0,"CPU_Cost":0.42666666666667,"Mem_Cost":0,"App_Cost":0},{"EndDate":"2020\/06\/12","GPU_Hours":0,"App":"LS-DYNA-R10double","JobName":"\/home\/export\/online1\/amd_app\/jobdata\/default\/twocarsnew\/Caravan-V03c-2400k-main-shell16-10ms.k","JobId":"2172","Queue":"q_x86_share","Cluster":"aip","CPU_Hours":0.08,"User":"amd_app","Mem_GB_Hours":0.018707275390625,"runTime":0.0033333333333333,"JobDescription":"Caravan-V03c-2400k-main-shell16-10ms.k","GPU_Cost":0,"CPU_Cost":0.08,"Mem_Cost":0,"App_Cost":0},{"EndDate":"2020\/06\/12","GPU_Hours":0,"App":"LSPrePost","JobName":"cubevnc","JobId":"2167","Queue":"q_x86_expr","Cluster":"aip","CPU_Hours":1.75,"User":"amd_app","Mem_GB_Hours":1.2316284179688,"runTime":1.75,"JobDescription":"twocarsnew","GPU_Cost":0,"CPU_Cost":1.75,"Mem_Cost":0,"App_Cost":0},{"EndDate":"2020\/06\/12","GPU_Hours":0,"App":"LSPrePost","JobName":"cubevnc","JobId":"2173","Queue":"q_x86_expr","Cluster":"aip","CPU_Hours":0.018611111111111,"User":"amd_app","Mem_GB_Hours":0.30471801757812,"runTime":0.018611111111111,"JobDescription":"twocarsnew","GPU_Cost":0,"CPU_Cost":0.018611111111111,"Mem_Cost":0,"App_Cost":0},{"EndDate":"2020\/06\/12","GPU_Hours":0,"App":"LSPrePost","JobName":"cubevnc","JobId":"2174","Queue":"q_x86_expr","Cluster":"aip","CPU_Hours":0.0069444444444444,"User":"amd_app","Mem_GB_Hours":0.31504821777344,"runTime":0.0069444444444444,"JobDescription":"twocarsnew","GPU_Cost":0,"CPU_Cost":0.0069444444444444,"Mem_Cost":0,"App_Cost":0},{"EndDate":"2020\/06\/12","GPU_Hours":0,"App":"LSPrePost","JobName":"cubevnc","JobId":"2175","Queue":"q_x86_expr","Cluster":"aip","CPU_Hours":0.027777777777778,"User":"amd_app","Mem_GB_Hours":0.36483383178711,"runTime":0.027777777777778,"JobDescription":"twocars03","GPU_Cost":0,"CPU_Cost":0.027777777777778,"Mem_Cost":0,"App_Cost":0},{"EndDate":"2020\/06\/12","GPU_Hours":0,"App":"LS-DYNA-R9single","JobName":"\/home\/export\/online1\/amd_app\/jobdata\/default\/twocars03\/Caravan-V03c-2400k-main-shell16-10ms.k","JobId":"2177","Queue":"q_x86_share","Cluster":"aip","CPU_Hours":1.52,"User":"amd_app","Mem_GB_Hours":0.018711090087891,"runTime":0.063333333333333,"JobDescription":"Caravan-V03c-2400k-main-shell16-10ms.k","GPU_Cost":0,"CPU_Cost":1.52,"Mem_Cost":0,"App_Cost":0},{"EndDate":"2020\/06\/12","GPU_Hours":0,"App":"LSPrePost","JobName":"cubevnc","JobId":"2163","Queue":"q_x86_expr","Cluster":"aip","CPU_Hours":3.6616666666667,"User":"amd_app","Mem_GB_Hours":1.2798461914062,"runTime":3.6616666666667,"JobDescription":"Cancrush","GPU_Cost":0,"CPU_Cost":3.6616666666667,"Mem_Cost":0,"App_Cost":0},{"EndDate":"2020\/06\/12","GPU_Hours":0,"App":"ICEM-CFD","JobName":"cubevnc","JobId":"2156","Queue":"q_x86_expr","Cluster":"aip","CPU_Hours":7.7269444444444,"User":"amd_app","Mem_GB_Hours":0.27776336669922,"runTime":7.7269444444444,"JobDescription":"fluent_test","GPU_Cost":0,"CPU_Cost":7.7269444444444,"Mem_Cost":0,"App_Cost":0},{"EndDate":"2020\/06\/12","GPU_Hours":0,"App":"LSPrePost","JobName":"cubevnc","JobId":"2176","Queue":"q_x86_expr","Cluster":"aip","CPU_Hours":0.2625,"User":"amd_app","Mem_GB_Hours":1.2193717956543,"runTime":0.2625,"JobDescription":"twocars03","GPU_Cost":0,"CPU_Cost":0.2625,"Mem_Cost":0,"App_Cost":0},{"EndDate":"2020\/06\/15","GPU_Hours":0,"App":"TankSimulator","JobName":"cubevnc","JobId":"2180","Queue":"q_x86_expr","Cluster":"aip","CPU_Hours":0.081388888888889,"User":"amd_app","Mem_GB_Hours":0.19166946411133,"runTime":0.081388888888889,"JobDescription":"version2","GPU_Cost":0,"CPU_Cost":0.081388888888889,"Mem_Cost":0,"App_Cost":0.40694444444444},{"EndDate":"2020\/06\/15","GPU_Hours":0,"App":"TankSimulator","JobName":"cubevnc","JobId":"2182","Queue":"q_x86_expr","Cluster":"aip","CPU_Hours":0.036944444444444,"User":"amd_app","Mem_GB_Hours":0.096626281738281,"runTime":0.036944444444444,"JobDescription":"tanktest","GPU_Cost":0,"CPU_Cost":0.036944444444444,"Mem_Cost":0,"App_Cost":0.18472222222222},{"EndDate":"2020\/06\/15","GPU_Hours":0,"App":"ParaView","JobName":"cubevnc","JobId":"2179","Queue":"q_x86_expr","Cluster":"aip","CPU_Hours":4.4175,"User":"amd_app","Mem_GB_Hours":0.43629455566406,"runTime":4.4175,"JobDescription":"testdai01","GPU_Cost":0,"CPU_Cost":4.4175,"Mem_Cost":0,"App_Cost":0},{"EndDate":"2020\/06\/15","GPU_Hours":0,"App":"Abaqus","JobName":"cubevnc","JobId":"2181","Queue":"q_x86_expr","Cluster":"aip","CPU_Hours":4.3108333333333,"User":"amd_app","Mem_GB_Hours":0.49489593505859,"runTime":4.3108333333333,"JobDescription":"qiuxiao","GPU_Cost":0,"CPU_Cost":4.3108333333333,"Mem_Cost":0,"App_Cost":0},{"EndDate":"2020\/06\/15","GPU_Hours":0,"App":"LSPrePost","JobName":"cubevnc","JobId":"2178","Queue":"q_x86_expr","Cluster":"aip","CPU_Hours":4.8530555555556,"User":"amd_app","Mem_GB_Hours":1.1271438598633,"runTime":4.8530555555556,"JobDescription":"twocars03","GPU_Cost":0,"CPU_Cost":4.8530555555556,"Mem_Cost":0,"App_Cost":0},{"EndDate":"2020\/06\/15","GPU_Hours":0,"App":"ParaView","JobName":"cubevnc","JobId":"2183","Queue":"q_x86_expr","Cluster":"aip","CPU_Hours":0.0030555555555556,"User":"amd_app","Mem_GB_Hours":0.30191802978516,"runTime":0.0030555555555556,"JobDescription":"testdai01","GPU_Cost":0,"CPU_Cost":0.0030555555555556,"Mem_Cost":0,"App_Cost":0},{"EndDate":"2020\/06\/15","GPU_Hours":0,"App":"ParaView","JobName":"cubevnc","JobId":"2184","Queue":"q_x86_expr","Cluster":"aip","CPU_Hours":0.0027777777777778,"User":"amd_app","Mem_GB_Hours":0.26143646240234,"runTime":0.0027777777777778,"JobDescription":"gltest","GPU_Cost":0,"CPU_Cost":0.0027777777777778,"Mem_Cost":0,"App_Cost":0},{"EndDate":"2020\/06\/15","GPU_Hours":0,"App":"StarCCM","JobName":"cubevnc","JobId":"2185","Queue":"q_x86_share","Cluster":"aip","CPU_Hours":1.2266666666667,"User":"amd_app","Mem_GB_Hours":0.67285919189453,"runTime":0.10222222222222,"JobDescription":"test","GPU_Cost":0,"CPU_Cost":1.2266666666667,"Mem_Cost":0,"App_Cost":0},{"EndDate":"2020\/06\/16","GPU_Hours":0,"App":"StarCCM","JobName":"cubevnc","JobId":"2186","Queue":"q_x86_share","Cluster":"aip","CPU_Hours":171.01666666667,"User":"amd_app","Mem_GB_Hours":0.84604263305664,"runTime":17.101666666667,"JobDescription":"test","GPU_Cost":0,"CPU_Cost":171.01666666667,"Mem_Cost":0,"App_Cost":0},{"EndDate":"2020\/06\/16","GPU_Hours":0,"App":"StarCCM","JobName":"cubevnc","JobId":"2187","Queue":"q_x86_share","Cluster":"aip","CPU_Hours":0.15388888888889,"User":"amd_app","Mem_GB_Hours":0.66629409790039,"runTime":0.15388888888889,"JobDescription":"test","GPU_Cost":0,"CPU_Cost":0.15388888888889,"Mem_Cost":0,"App_Cost":0},{"EndDate":"2020\/06\/16","GPU_Hours":0,"App":"StarCCM","JobName":"cubevnc","JobId":"2188","Queue":"q_x86_expr","Cluster":"aip","CPU_Hours":0.32333333333333,"User":"amd_app","Mem_GB_Hours":0.66094970703125,"runTime":0.026944444444444,"JobDescription":"starccm_test","GPU_Cost":0,"CPU_Cost":0.32333333333333,"Mem_Cost":0,"App_Cost":0},{"EndDate":"2020\/06\/16","GPU_Hours":0,"App":"StarCCM","JobName":"cubevnc","JobId":"2189","Queue":"q_x86_share","Cluster":"aip","CPU_Hours":0.28,"User":"amd_app","Mem_GB_Hours":0.67193984985352,"runTime":0.023333333333333,"JobDescription":"starccm_test","GPU_Cost":0,"CPU_Cost":0.28,"Mem_Cost":0,"App_Cost":0},{"EndDate":"2020\/06\/16","GPU_Hours":0,"App":"StarCCM","JobName":"cubevnc","JobId":"2190","Queue":"q_x86_share","Cluster":"aip","CPU_Hours":0.68333333333333,"User":"amd_app","Mem_GB_Hours":0.7288703918457,"runTime":0.056944444444444,"JobDescription":"starccm_test","GPU_Cost":0,"CPU_Cost":0.68333333333333,"Mem_Cost":0,"App_Cost":0},{"EndDate":"2020\/06\/16","GPU_Hours":0,"App":"StarCCM","JobName":"cubevnc","JobId":"2191","Queue":"q_x86_share","Cluster":"aip","CPU_Hours":0.13666666666667,"User":"amd_app","Mem_GB_Hours":0.65842056274414,"runTime":0.011388888888889,"JobDescription":"starccm_test","GPU_Cost":0,"CPU_Cost":0.13666666666667,"Mem_Cost":0,"App_Cost":0},{"EndDate":"2020\/06\/16","GPU_Hours":0,"App":"StarCCM","JobName":"cubevnc","JobId":"2192","Queue":"q_x86_share","Cluster":"aip","CPU_Hours":0.40333333333333,"User":"amd_app","Mem_GB_Hours":0.68126678466797,"runTime":0.033611111111111,"JobDescription":"starccm_test","GPU_Cost":0,"CPU_Cost":0.40333333333333,"Mem_Cost":0,"App_Cost":0},{"EndDate":"2020\/06\/16","GPU_Hours":0,"App":"StarCCM","JobName":"cubevnc","JobId":"2193","Queue":"q_x86_expr","Cluster":"aip","CPU_Hours":0.20333333333333,"User":"amd_app","Mem_GB_Hours":0.72277069091797,"runTime":0.016944444444444,"JobDescription":"starccm_test","GPU_Cost":0,"CPU_Cost":0.20333333333333,"Mem_Cost":0,"App_Cost":0},{"EndDate":"2020\/06\/16","GPU_Hours":0,"App":"StarCCM","JobName":"cubevnc","JobId":"2194","Queue":"q_x86_share","Cluster":"aip","CPU_Hours":0.58666666666667,"User":"amd_app","Mem_GB_Hours":0.70782852172852,"runTime":0.048888888888889,"JobDescription":"starccm_test","GPU_Cost":0,"CPU_Cost":0.58666666666667,"Mem_Cost":0,"App_Cost":0},{"EndDate":"2020\/06\/16","GPU_Hours":0,"App":"ParaView","JobName":"cubevnc","JobId":"2195","Queue":"q_x86_expr","Cluster":"aip","CPU_Hours":0.0025,"User":"amd_app","Mem_GB_Hours":0.27183532714844,"runTime":0.0025,"JobDescription":"gltest","GPU_Cost":0,"CPU_Cost":0.0025,"Mem_Cost":0,"App_Cost":0},{"EndDate":"2020\/06\/16","GPU_Hours":0,"App":"ParaView","JobName":"cubevnc","JobId":"2196","Queue":"q_x86_expr","Cluster":"aip","CPU_Hours":0.0027777777777778,"User":"amd_app","Mem_GB_Hours":0.31111526489258,"runTime":0.0027777777777778,"JobDescription":"opengltest","GPU_Cost":0,"CPU_Cost":0.0027777777777778,"Mem_Cost":0,"App_Cost":0},{"EndDate":"2020\/06\/16","GPU_Hours":0,"App":"TankSimulator","JobName":"cubevnc","JobId":"2198","Queue":"q_x86_expr","Cluster":"aip","CPU_Hours":0.0041666666666667,"User":"amd_app","Mem_GB_Hours":0.0966796875,"runTime":0.0041666666666667,"JobDescription":"tanktest","GPU_Cost":0,"CPU_Cost":0.0041666666666667,"Mem_Cost":0,"App_Cost":0.020833333333333},{"EndDate":"2020\/06\/16","GPU_Hours":0,"App":"Abaqus","JobName":"cubevnc","JobId":"2197","Queue":"q_x86_expr","Cluster":"aip","CPU_Hours":0.55638888888889,"User":"amd_app","Mem_GB_Hours":0.47607040405273,"runTime":0.55638888888889,"JobDescription":"twocars","GPU_Cost":0,"CPU_Cost":0.55638888888889,"Mem_Cost":0,"App_Cost":0},{"EndDate":"2020\/06\/17","GPU_Hours":0,"App":"LSPrePost","JobName":"cubevnc","JobId":"2199","Queue":"q_x86_expr","Cluster":"aip","CPU_Hours":0.10666666666667,"User":"amd_app","Mem_GB_Hours":0.29314041137695,"runTime":0.10666666666667,"JobDescription":"test","GPU_Cost":0,"CPU_Cost":0.10666666666667,"Mem_Cost":0,"App_Cost":0},{"EndDate":"2020\/06\/17","GPU_Hours":0,"App":"TankSimulator","JobName":"cubevnc","JobId":"2200","Queue":"q_x86_expr","Cluster":"aip","CPU_Hours":0.013055555555556,"User":"amd_app","Mem_GB_Hours":0.1644401550293,"runTime":0.013055555555556,"JobDescription":"tanktest","GPU_Cost":0,"CPU_Cost":0.013055555555556,"Mem_Cost":0,"App_Cost":0.065277777777778},{"EndDate":"2020\/06\/17","GPU_Hours":0,"App":"TankSimulator","JobName":"cubevnc","JobId":"2201","Queue":"q_x86_expr","Cluster":"aip","CPU_Hours":0.030833333333333,"User":"amd_app","Mem_GB_Hours":0.17679977416992,"runTime":0.030833333333333,"JobDescription":"tanktest","GPU_Cost":0,"CPU_Cost":0.030833333333333,"Mem_Cost":0,"App_Cost":0.15416666666667},{"EndDate":"2020\/06\/17","GPU_Hours":0,"App":"StarCCM","JobName":"cubevnc","JobId":"2204","Queue":"q_x86_share","Cluster":"aip","CPU_Hours":0.37,"User":"amd_app","Mem_GB_Hours":0.67714691162109,"runTime":0.030833333333333,"JobDescription":"starccm_test","GPU_Cost":0,"CPU_Cost":0.37,"Mem_Cost":0,"App_Cost":0},{"EndDate":"2020\/06\/17","GPU_Hours":0,"App":"Fluent","JobName":"cubevnc","JobId":"2202","Queue":"q_x86_share","Cluster":"aip","CPU_Hours":4.18,"User":"amd_app","Mem_GB_Hours":0.086555480957031,"runTime":0.17416666666667,"JobDescription":"fluentGUI_test","GPU_Cost":0,"CPU_Cost":4.18,"Mem_Cost":0,"App_Cost":41.8},{"EndDate":"2020\/06\/17","GPU_Hours":0,"App":"TankSimulator","JobName":"cubevnc","JobId":"2203","Queue":"q_x86_expr","Cluster":"aip","CPU_Hours":0.54305555555556,"User":"amd_app","Mem_GB_Hours":0.18971252441406,"runTime":0.54305555555556,"JobDescription":"test02","GPU_Cost":0,"CPU_Cost":0.54305555555556,"Mem_Cost":0,"App_Cost":2.7152777777778},{"EndDate":"2020\/06\/17","GPU_Hours":0,"App":"TankSimulator","JobName":"cubevnc","JobId":"2207","Queue":"q_x86_expr","Cluster":"aip","CPU_Hours":0.029722222222222,"User":"amd_app","Mem_GB_Hours":0.17140579223633,"runTime":0.029722222222222,"JobDescription":"test02","GPU_Cost":0,"CPU_Cost":0.029722222222222,"Mem_Cost":0,"App_Cost":0.14861111111111},{"EndDate":"2020\/06\/17","GPU_Hours":0,"App":"StarCCM","JobName":"cubevnc","JobId":"2212","Queue":"q_x86_share","Cluster":"aip","CPU_Hours":3.2333333333333,"User":"amd_app","Mem_GB_Hours":0.70381927490234,"runTime":0.26944444444444,"JobDescription":"starccm_test","GPU_Cost":0,"CPU_Cost":3.2333333333333,"Mem_Cost":0,"App_Cost":0},{"EndDate":"2020\/06\/17","GPU_Hours":0,"App":"StarCCM","JobName":"cubevnc","JobId":"2213","Queue":"q_x86_expr","Cluster":"aip","CPU_Hours":0.014166666666667,"User":"amd_app","Mem_GB_Hours":0.65968704223633,"runTime":0.014166666666667,"JobDescription":"starccm_test","GPU_Cost":0,"CPU_Cost":0.014166666666667,"Mem_Cost":0,"App_Cost":0},{"EndDate":"2020\/06\/17","GPU_Hours":0,"App":"StarCCM","JobName":"cubevnc","JobId":"2214","Queue":"q_x86_expr","Cluster":"aip","CPU_Hours":0.19527777777778,"User":"amd_app","Mem_GB_Hours":0.69868469238281,"runTime":0.19527777777778,"JobDescription":"starccm_test","GPU_Cost":0,"CPU_Cost":0.19527777777778,"Mem_Cost":0,"App_Cost":0},{"EndDate":"2020\/06\/17","GPU_Hours":0,"App":"Fluent","JobName":"cubevnc","JobId":"2216","Queue":"q_x86_share","Cluster":"aip","CPU_Hours":2.74,"User":"amd_app","Mem_GB_Hours":0.1710090637207,"runTime":0.3425,"JobDescription":"fluent_icepak","GPU_Cost":0,"CPU_Cost":2.74,"Mem_Cost":0,"App_Cost":27.4},{"EndDate":"2020\/06\/17","GPU_Hours":0,"App":"Fluent","JobName":"cubevnc","JobId":"2217","Queue":"q_x86_expr","Cluster":"aip","CPU_Hours":0.011111111111111,"User":"amd_app","Mem_GB_Hours":0.1640625,"runTime":0.011111111111111,"JobDescription":"fluent_icepak","GPU_Cost":0,"CPU_Cost":0.011111111111111,"Mem_Cost":0,"App_Cost":0.11111111111111},{"EndDate":"2020\/06\/17","GPU_Hours":0,"App":"Fluent","JobName":"cubevnc","JobId":"2218","Queue":"q_x86_expr","Cluster":"aip","CPU_Hours":0.0097222222222222,"User":"amd_app","Mem_GB_Hours":0.16033554077148,"runTime":0.0097222222222222,"JobDescription":"fluent_icepak","GPU_Cost":0,"CPU_Cost":0.0097222222222222,"Mem_Cost":0,"App_Cost":0.097222222222222},{"EndDate":"2020\/06\/17","GPU_Hours":0,"App":"Fluent","JobName":"cubevnc","JobId":"2219","Queue":"q_x86_expr","Cluster":"aip","CPU_Hours":0.011111111111111,"User":"amd_app","Mem_GB_Hours":0.16057205200195,"runTime":0.011111111111111,"JobDescription":"fluent_icepak","GPU_Cost":0,"CPU_Cost":0.011111111111111,"Mem_Cost":0,"App_Cost":0.11111111111111},{"EndDate":"2020\/06\/17","GPU_Hours":0,"App":"StarCCM","JobName":"cubevnc","JobId":"2215","Queue":"q_x86_share","Cluster":"aip","CPU_Hours":3.1919444444444,"User":"amd_app","Mem_GB_Hours":0.69269561767578,"runTime":3.1919444444444,"JobDescription":"starccm_test","GPU_Cost":0,"CPU_Cost":3.1919444444444,"Mem_Cost":0,"App_Cost":0},{"EndDate":"2020\/06\/17","GPU_Hours":0,"App":"ParaView","JobName":"cubevnc","JobId":"2206","Queue":"q_x86_expr","Cluster":"aip","CPU_Hours":13.581666666667,"User":"amd_app","Mem_GB_Hours":1.0518035888672,"runTime":13.581666666667,"JobDescription":"opengltest","GPU_Cost":0,"CPU_Cost":13.581666666667,"Mem_Cost":0,"App_Cost":0},{"EndDate":"2020\/06\/17","GPU_Hours":0,"App":"ParaView","JobName":"cubevnc","JobId":"2221","Queue":"q_x86_expr","Cluster":"aip","CPU_Hours":0.02,"User":"amd_app","Mem_GB_Hours":0.18276214599609,"runTime":0.02,"JobDescription":"opengltest","GPU_Cost":0,"CPU_Cost":0.02,"Mem_Cost":0,"App_Cost":0},{"EndDate":"2020\/06\/17","GPU_Hours":0,"App":"StarCCM","JobName":"cubevnc","JobId":"2222","Queue":"q_x86_share","Cluster":"aip","CPU_Hours":0.036388888888889,"User":"amd_app","Mem_GB_Hours":0.69187545776367,"runTime":0.036388888888889,"JobDescription":"starccm_test","GPU_Cost":0,"CPU_Cost":0.036388888888889,"Mem_Cost":0,"App_Cost":0},{"EndDate":"2020\/06\/17","GPU_Hours":0,"App":"StarCCM","JobName":"cubevnc","JobId":"2223","Queue":"q_x86_share","Cluster":"aip","CPU_Hours":0.016388888888889,"User":"amd_app","Mem_GB_Hours":0.68828201293945,"runTime":0.016388888888889,"JobDescription":"starccm_test","GPU_Cost":0,"CPU_Cost":0.016388888888889,"Mem_Cost":0,"App_Cost":0},{"EndDate":"2020\/06\/17","GPU_Hours":0,"App":"StarCCM","JobName":"cubevnc","JobId":"2224","Queue":"q_x86_share","Cluster":"aip","CPU_Hours":0.020555555555556,"User":"amd_app","Mem_GB_Hours":0.70364761352539,"runTime":0.020555555555556,"JobDescription":"starccm_test","GPU_Cost":0,"CPU_Cost":0.020555555555556,"Mem_Cost":0,"App_Cost":0},{"EndDate":"2020\/06\/17","GPU_Hours":0,"App":"StarCCM","JobName":"cubevnc","JobId":"2225","Queue":"q_x86_share","Cluster":"aip","CPU_Hours":0.060277777777778,"User":"amd_app","Mem_GB_Hours":0.69661712646484,"runTime":0.060277777777778,"JobDescription":"starccm_test","GPU_Cost":0,"CPU_Cost":0.060277777777778,"Mem_Cost":0,"App_Cost":0},{"EndDate":"2020\/06\/17","GPU_Hours":0,"App":"StarCCM","JobName":"cubevnc","JobId":"2226","Queue":"q_x86_share","Cluster":"aip","CPU_Hours":0.024166666666667,"User":"amd_app","Mem_GB_Hours":0.65857696533203,"runTime":0.024166666666667,"JobDescription":"starccm_test","GPU_Cost":0,"CPU_Cost":0.024166666666667,"Mem_Cost":0,"App_Cost":0},{"EndDate":"2020\/06\/18","GPU_Hours":0,"App":"StarCCM","JobName":"cubevnc","JobId":"2227","Queue":"q_x86_share","Cluster":"aip","CPU_Hours":0.79,"User":"amd_app","Mem_GB_Hours":0.71994018554688,"runTime":0.065833333333333,"JobDescription":"starccm_test","GPU_Cost":0,"CPU_Cost":0.79,"Mem_Cost":0,"App_Cost":0},{"EndDate":"2020\/06\/18","GPU_Hours":0,"App":"StarCCM","JobName":"cubevnc","JobId":"2228","Queue":"q_x86_share","Cluster":"aip","CPU_Hours":147.95,"User":"amd_app","Mem_GB_Hours":0.73507690429688,"runTime":12.329166666667,"JobDescription":"starccm_test","GPU_Cost":0,"CPU_Cost":147.95,"Mem_Cost":0,"App_Cost":0},{"EndDate":"2020\/06\/18","GPU_Hours":0,"App":"Fluent","JobName":"cubevnc","JobId":"2220","Queue":"q_x86_share","Cluster":"aip","CPU_Hours":30.096666666667,"User":"amd_app","Mem_GB_Hours":0.17742156982422,"runTime":30.096666666667,"JobDescription":"fluent-icepak","GPU_Cost":0,"CPU_Cost":30.096666666667,"Mem_Cost":0,"App_Cost":300.96666666667},{"EndDate":"2020\/06\/20","GPU_Hours":0,"App":"StarCCM","JobName":"cubevnc","JobId":"2229","Queue":"q_x86_expr","Cluster":"aip","CPU_Hours":0.12611111111111,"User":"amd_app","Mem_GB_Hours":0.066276550292969,"runTime":0.12611111111111,"JobDescription":"teststar","GPU_Cost":0,"CPU_Cost":0.12611111111111,"Mem_Cost":0,"App_Cost":0},{"EndDate":"2020\/06\/22","GPU_Hours":0,"App":"TankSimulator","JobName":"cubevnc","JobId":"2230","Queue":"q_x86_expr","Cluster":"aip","CPU_Hours":0.016388888888889,"User":"amd_app","Mem_GB_Hours":0.11481857299805,"runTime":0.016388888888889,"JobDescription":"test02","GPU_Cost":0,"CPU_Cost":0.016388888888889,"Mem_Cost":0,"App_Cost":0.081944444444444},{"EndDate":"2020\/06\/22","GPU_Hours":0,"App":"TankSimulator","JobName":"cubevnc","JobId":"2231","Queue":"q_x86_expr","Cluster":"aip","CPU_Hours":0.0044444444444444,"User":"amd_app","Mem_GB_Hours":0.11528778076172,"runTime":0.0044444444444444,"JobDescription":"Tank01","GPU_Cost":0,"CPU_Cost":0.0044444444444444,"Mem_Cost":0,"App_Cost":0.022222222222222},{"EndDate":"2020\/06\/22","GPU_Hours":0,"App":"Abaqus","JobName":"cubevnc","JobId":"2205","Queue":"q_x86_expr","Cluster":"aip","CPU_Hours":123.55083333333,"User":"amd_app","Mem_GB_Hours":0.73424530029297,"runTime":123.55083333333,"JobDescription":"twocars","GPU_Cost":0,"CPU_Cost":123.55083333333,"Mem_Cost":0,"App_Cost":0},{"EndDate":"2020\/06\/22","GPU_Hours":0,"App":"TankSimulator","JobName":"cubevnc","JobId":"2233","Queue":"q_x86_expr","Cluster":"aip","CPU_Hours":0.005,"User":"amd_app","Mem_GB_Hours":0.11524200439453,"runTime":0.005,"JobDescription":"Tanknew001","GPU_Cost":0,"CPU_Cost":0.005,"Mem_Cost":0,"App_Cost":0.025},{"EndDate":"2020\/06\/22","GPU_Hours":0,"App":"LSPrePost","JobName":"cubevnc","JobId":"2232","Queue":"q_x86_expr","Cluster":"aip","CPU_Hours":0.33305555555556,"User":"amd_app","Mem_GB_Hours":1.2878532409668,"runTime":0.33305555555556,"JobDescription":"test","GPU_Cost":0,"CPU_Cost":0.33305555555556,"Mem_Cost":0,"App_Cost":0},{"EndDate":"2020\/06\/22","GPU_Hours":0,"App":"Fluent","JobName":"cubevnc","JobId":"2234","Queue":"q_x86_share","Cluster":"aip","CPU_Hours":0.30222222222222,"User":"amd_app","Mem_GB_Hours":0.17428207397461,"runTime":0.30222222222222,"JobDescription":"fluent_icepak","GPU_Cost":0,"CPU_Cost":0.30222222222222,"Mem_Cost":0,"App_Cost":3.0222222222222},{"EndDate":"2020\/06\/22","GPU_Hours":0,"App":"Abaqus2017","JobName":"Job-154049","JobId":"2237","Queue":"q_x86_share","Cluster":"aip","CPU_Hours":0.0022222222222222,"User":"amd_app","Mem_GB_Hours":0.018714904785156,"runTime":0.00055555555555556,"JobDescription":"Job-154049-qiuxiao","GPU_Cost":0,"CPU_Cost":0.0022222222222222,"Mem_Cost":0,"App_Cost":0},{"EndDate":"2020\/06\/22","GPU_Hours":0,"App":"Abaqus","JobName":"cubevnc","JobId":"2236","Queue":"q_x86_expr","Cluster":"aip","CPU_Hours":0.094166666666667,"User":"amd_app","Mem_GB_Hours":0.59064102172852,"runTime":0.094166666666667,"JobDescription":"Canbuckling","GPU_Cost":0,"CPU_Cost":0.094166666666667,"Mem_Cost":0,"App_Cost":0},{"EndDate":"2020\/06\/22","GPU_Hours":0,"App":"Abaqus2017","JobName":"Job-154417","JobId":"2239","Queue":"q_x86_share","Cluster":"aip","CPU_Hours":0.0011111111111111,"User":"amd_app","Mem_GB_Hours":0.018707275390625,"runTime":0.00027777777777778,"JobDescription":"Job-154417-qiuxiao","GPU_Cost":0,"CPU_Cost":0.0011111111111111,"Mem_Cost":0,"App_Cost":0},{"EndDate":"2020\/06\/22","GPU_Hours":0,"App":"LSPrePost","JobName":"cubevnc","JobId":"2240","Queue":"q_x86_expr","Cluster":"aip","CPU_Hours":0.075833333333333,"User":"amd_app","Mem_GB_Hours":1.2551651000977,"runTime":0.075833333333333,"JobDescription":"test","GPU_Cost":0,"CPU_Cost":0.075833333333333,"Mem_Cost":0,"App_Cost":0},{"EndDate":"2020\/06\/22","GPU_Hours":0,"App":"LS-DYNA-R9single","JobName":"\/home\/export\/online1\/amd_app\/jobdata\/default\/twocars03\/Caravan-V03c-2400k-main-shell16-10ms.k","JobId":"2241","Queue":"q_x86_share","Cluster":"aip","CPU_Hours":1.08,"User":"amd_app","Mem_GB_Hours":0.018711090087891,"runTime":0.045,"JobDescription":"Caravan-V03c-2400k-main-shell16-10ms.k","GPU_Cost":0,"CPU_Cost":1.08,"Mem_Cost":0,"App_Cost":0},{"EndDate":"2020\/06\/22","GPU_Hours":0,"App":"LSPrePost","JobName":"cubevnc","JobId":"2242","Queue":"q_x86_expr","Cluster":"aip","CPU_Hours":0.0038888888888889,"User":"amd_app","Mem_GB_Hours":0.30950164794922,"runTime":0.0038888888888889,"JobDescription":"twocars03","GPU_Cost":0,"CPU_Cost":0.0038888888888889,"Mem_Cost":0,"App_Cost":0},{"EndDate":"2020\/06\/22","GPU_Hours":0,"App":"ParaView","JobName":"cubevnc","JobId":"2245","Queue":"q_x86_expr","Cluster":"aip","CPU_Hours":0.039444444444444,"User":"amd_app","Mem_GB_Hours":0.44917678833008,"runTime":0.039444444444444,"JobDescription":"opengltest","GPU_Cost":0,"CPU_Cost":0.039444444444444,"Mem_Cost":0,"App_Cost":0},{"EndDate":"2020\/06\/22","GPU_Hours":0,"App":"LSPrePost","JobName":"cubevnc","JobId":"2243","Queue":"q_x86_expr","Cluster":"aip","CPU_Hours":0.21805555555556,"User":"amd_app","Mem_GB_Hours":1.2086029052734,"runTime":0.21805555555556,"JobDescription":"twocars03","GPU_Cost":0,"CPU_Cost":0.21805555555556,"Mem_Cost":0,"App_Cost":0},{"EndDate":"2020\/06\/22","GPU_Hours":0,"App":"LS-DYNA-R9single","JobName":"\/home\/export\/online1\/amd_app\/jobdata\/default\/twocars03\/Caravan-V03c-2400k-main-shell16-10ms.k","JobId":"2244","Queue":"q_x86_share","Cluster":"aip","CPU_Hours":4.7933333333333,"User":"amd_app","Mem_GB_Hours":0.018711090087891,"runTime":0.19972222222222,"JobDescription":"Caravan-V03c-2400k-main-shell16-10ms.k","GPU_Cost":0,"CPU_Cost":4.7933333333333,"Mem_Cost":0,"App_Cost":0},{"EndDate":"2020\/06\/22","GPU_Hours":0,"App":"Abaqus","JobName":"cubevnc","JobId":"2238","Queue":"q_x86_expr","Cluster":"aip","CPU_Hours":0.47861111111111,"User":"amd_app","Mem_GB_Hours":0.53148651123047,"runTime":0.47861111111111,"JobDescription":"qiuxiao","GPU_Cost":0,"CPU_Cost":0.47861111111111,"Mem_Cost":0,"App_Cost":0},{"EndDate":"2020\/06\/22","GPU_Hours":0,"App":"TankSimulator","JobName":"cubevnc","JobId":"2235","Queue":"q_x86_expr","Cluster":"aip","CPU_Hours":0.96222222222222,"User":"amd_app","Mem_GB_Hours":0.23312377929688,"runTime":0.96222222222222,"JobDescription":"Tanknew001","GPU_Cost":0,"CPU_Cost":0.96222222222222,"Mem_Cost":0,"App_Cost":4.8111111111111},{"EndDate":"2020\/06\/22","GPU_Hours":0,"App":"Abaqus2017","JobName":"Job-162837","JobId":"2248","Queue":"q_x86_expr","Cluster":"aip","CPU_Hours":0.47888888888889,"User":"amd_app","Mem_GB_Hours":0.018711090087891,"runTime":0.11972222222222,"JobDescription":"Job-162837-qiuxiao","GPU_Cost":0,"CPU_Cost":0.47888888888889,"Mem_Cost":0,"App_Cost":0},{"EndDate":"2020\/06\/22","GPU_Hours":0,"App":"Abaqus","JobName":"cubevnc","JobId":"2247","Queue":"q_x86_expr","Cluster":"aip","CPU_Hours":0.56638888888889,"User":"amd_app","Mem_GB_Hours":0.91226959228516,"runTime":0.56638888888889,"JobDescription":"qiuxiao","GPU_Cost":0,"CPU_Cost":0.56638888888889,"Mem_Cost":0,"App_Cost":0},{"EndDate":"2020\/06\/22","GPU_Hours":0,"App":"Abaqus","JobName":"cubevnc","JobId":"2249","Queue":"q_x86_expr","Cluster":"aip","CPU_Hours":0.10861111111111,"User":"amd_app","Mem_GB_Hours":0.52457427978516,"runTime":0.10861111111111,"JobDescription":"qiuxiao","GPU_Cost":0,"CPU_Cost":0.10861111111111,"Mem_Cost":0,"App_Cost":0},{"EndDate":"2020\/06\/22","GPU_Hours":0,"App":"Abaqus2017","JobName":"Job-174532","JobId":"2250","Queue":"q_x86_expr","Cluster":"aip","CPU_Hours":0.48777777777778,"User":"amd_app","Mem_GB_Hours":0.018703460693359,"runTime":0.12194444444444,"JobDescription":"Job-174532-qiuxiao","GPU_Cost":0,"CPU_Cost":0.48777777777778,"Mem_Cost":0,"App_Cost":0},{"EndDate":"2020\/06\/22","GPU_Hours":0,"App":"LS-DYNA-R10double","JobName":"\/home\/export\/online1\/amd_app\/dzj\/ls-dynatest\/droptest01\/EXP_SC_DROP.key","JobId":"2252","Queue":"q_x86_expr","Cluster":"aip","CPU_Hours":0.020555555555556,"User":"amd_app","Mem_GB_Hours":0.018711090087891,"runTime":0.020555555555556,"JobDescription":"EXP_SC_DROP.key","GPU_Cost":0,"CPU_Cost":0.020555555555556,"Mem_Cost":0,"App_Cost":0},{"EndDate":"2020\/06\/22","GPU_Hours":0,"App":"LSPrePost","JobName":"cubevnc","JobId":"2251","Queue":"q_x86_expr","Cluster":"aip","CPU_Hours":0.076111111111111,"User":"amd_app","Mem_GB_Hours":1.1870460510254,"runTime":0.076111111111111,"JobDescription":"twocars03","GPU_Cost":0,"CPU_Cost":0.076111111111111,"Mem_Cost":0,"App_Cost":0},{"EndDate":"2020\/06\/22","GPU_Hours":0,"App":"LS-DYNA-R9single","JobName":"\/home\/export\/online1\/amd_app\/dzj\/twocars\/ls-dyna\/Caravan-V03c-2400k-main-shell16-10ms.k","JobId":"2254","Queue":"q_x86_share","Cluster":"aip","CPU_Hours":1.08,"User":"amd_app","Mem_GB_Hours":0.018707275390625,"runTime":0.045,"JobDescription":"Caravan-V03c-2400k-main-shell16-10ms.k","GPU_Cost":0,"CPU_Cost":1.08,"Mem_Cost":0,"App_Cost":0},{"EndDate":"2020\/06\/22","GPU_Hours":0,"App":"LSPrePost","JobName":"cubevnc","JobId":"2253","Queue":"q_x86_expr","Cluster":"aip","CPU_Hours":0.066388888888889,"User":"amd_app","Mem_GB_Hours":1.3309020996094,"runTime":0.066388888888889,"JobDescription":"Cancrush","GPU_Cost":0,"CPU_Cost":0.066388888888889,"Mem_Cost":0,"App_Cost":0},{"EndDate":"2020\/06\/22","GPU_Hours":0,"App":"TankSimulator","JobName":"cubevnc","JobId":"2246","Queue":"q_x86_expr","Cluster":"aip","CPU_Hours":1.9455555555556,"User":"amd_app","Mem_GB_Hours":0.22269821166992,"runTime":1.9455555555556,"JobDescription":"Tank01","GPU_Cost":0,"CPU_Cost":1.9455555555556,"Mem_Cost":0,"App_Cost":9.7277777777778},{"EndDate":"2020\/06\/22","GPU_Hours":0,"App":"Fluent","JobName":"cubevnc","JobId":"2255","Queue":"q_x86_expr","Cluster":"aip","CPU_Hours":0.0025,"User":"amd_app","Mem_GB_Hours":0.032421112060547,"runTime":0.0025,"JobDescription":"fluentGUItest","GPU_Cost":0,"CPU_Cost":0.0025,"Mem_Cost":0,"App_Cost":0.025},{"EndDate":"2020\/06\/22","GPU_Hours":0,"App":"Fluent","JobName":"cubevnc","JobId":"2256","Queue":"q_x86_share","Cluster":"aip","CPU_Hours":0.36388888888889,"User":"amd_app","Mem_GB_Hours":0.170166015625,"runTime":0.36388888888889,"JobDescription":"fluentGUItest","GPU_Cost":0,"CPU_Cost":0.36388888888889,"Mem_Cost":0,"App_Cost":3.6388888888889},{"EndDate":"2020\/06\/23","GPU_Hours":0,"App":"Abaqus2017","JobName":"Job-083907","JobId":"2257","Queue":"q_x86_expr","Cluster":"aip","CPU_Hours":0.0011111111111111,"User":"amd_app","Mem_GB_Hours":0.0093955993652344,"runTime":0.00027777777777778,"JobDescription":"Job-083907-explicit","GPU_Cost":0,"CPU_Cost":0.0011111111111111,"Mem_Cost":0,"App_Cost":0},{"EndDate":"2020\/06\/23","GPU_Hours":0,"App":"Abaqus2017","JobName":"Job-084000","JobId":"2258","Queue":"q_x86_share","Cluster":"aip","CPU_Hours":0.042222222222222,"User":"amd_app","Mem_GB_Hours":0.011878967285156,"runTime":0.010555555555556,"JobDescription":"Job-084000-explicit","GPU_Cost":0,"CPU_Cost":0.042222222222222,"Mem_Cost":0,"App_Cost":0},{"EndDate":"2020\/06\/23","GPU_Hours":0,"App":"Abaqus2017","JobName":"Job-085606","JobId":"2259","Queue":"q_x86_share","Cluster":"aip","CPU_Hours":0.028888888888889,"User":"amd_app","Mem_GB_Hours":0.011875152587891,"runTime":0.014444444444444,"JobDescription":"Job-085606-explicit","GPU_Cost":0,"CPU_Cost":0.028888888888889,"Mem_Cost":0,"App_Cost":0},{"EndDate":"2020\/06\/23","GPU_Hours":0,"App":"Abaqus2017","JobName":"Job-090544","JobId":"2261","Queue":"q_x86_share","Cluster":"aip","CPU_Hours":0.81,"User":"amd_app","Mem_GB_Hours":0.018703460693359,"runTime":0.405,"JobDescription":"Job-090544-qiuxiao","GPU_Cost":0,"CPU_Cost":0.81,"Mem_Cost":0,"App_Cost":0},{"EndDate":"2020\/06\/23","GPU_Hours":0,"App":"LS-DYNA-R9double","JobName":"\/home\/export\/base\/nsccwuxi_amd\/amd_app\/online1\/dzj\/ls-dynatest\/can\/4.2_Buckling_of_Beer_Can.key","JobId":"2267","Queue":"q_x86_share","Cluster":"aip","CPU_Hours":0.53666666666667,"User":"amd_app","Mem_GB_Hours":0.018711090087891,"runTime":0.13416666666667,"JobDescription":"4.2_Buckling_of_Beer_Can.key","GPU_Cost":0,"CPU_Cost":0.53666666666667,"Mem_Cost":0,"App_Cost":0},{"EndDate":"2020\/06\/23","GPU_Hours":0,"App":"PointWise","JobName":"cubevnc","JobId":"2268","Queue":"q_x86_share","Cluster":"aip","CPU_Hours":0.25527777777778,"User":"amd_app","Mem_GB_Hours":2.5575790405273,"runTime":0.25527777777778,"JobDescription":"PW_test","GPU_Cost":0,"CPU_Cost":0.25527777777778,"Mem_Cost":0,"App_Cost":0},{"EndDate":"2020\/06\/23","GPU_Hours":0,"App":"PointWise","JobName":"cubevnc","JobId":"2269","Queue":"q_x86_share","Cluster":"aip","CPU_Hours":0.054444444444444,"User":"amd_app","Mem_GB_Hours":2.9265785217285,"runTime":0.054444444444444,"JobDescription":"PW_test","GPU_Cost":0,"CPU_Cost":0.054444444444444,"Mem_Cost":0,"App_Cost":0},{"EndDate":"2020\/06\/23","GPU_Hours":0,"App":"ICEM-CFD","JobName":"cubevnc","JobId":"2270","Queue":"q_x86_share","Cluster":"aip","CPU_Hours":0.079722222222222,"User":"amd_app","Mem_GB_Hours":0.30076217651367,"runTime":0.079722222222222,"JobDescription":"icemcfd","GPU_Cost":0,"CPU_Cost":0.079722222222222,"Mem_Cost":0,"App_Cost":0},{"EndDate":"2020\/06\/23","GPU_Hours":0,"App":"StarCCM","JobName":"cubevnc","JobId":"2271","Queue":"q_x86_share","Cluster":"aip","CPU_Hours":0.85333333333333,"User":"amd_app","Mem_GB_Hours":0.068370819091797,"runTime":0.071111111111111,"JobDescription":"starccm_test","GPU_Cost":0,"CPU_Cost":0.85333333333333,"Mem_Cost":0,"App_Cost":0},{"EndDate":"2020\/06\/23","GPU_Hours":0,"App":"StarCCM","JobName":"cubevnc","JobId":"2272","Queue":"q_x86_share","Cluster":"aip","CPU_Hours":1.3366666666667,"User":"amd_app","Mem_GB_Hours":0.66660308837891,"runTime":0.11138888888889,"JobDescription":"starccm_test","GPU_Cost":0,"CPU_Cost":1.3366666666667,"Mem_Cost":0,"App_Cost":0},{"EndDate":"2020\/06\/23","GPU_Hours":0,"App":"StarCCM","JobName":"cubevnc","JobId":"2273","Queue":"q_x86_expr","Cluster":"aip","CPU_Hours":0.056111111
[...]
,{"EndDate":"2020\/06\/24","GPU_Hours":0,"App":"Fluent","JobName":"cubevnc","JobId":"2285","Queue":"q_x86_share","Cluster":"aip","CPU_Hours":17.913333333333,"User":"amd_app","Mem_GB_Hours":0.095081329345703,"runTime":1.4927777777778,"JobDescription":"fluent_icepak","GPU_Cost":0,"CPU_Cost":17.913333333333,"Mem_Cost":0,"App_Cost":179.13333333333},{"EndDate":"2020\/06\/24","GPU_Hours":0,"App":"ParaView","JobName":"cubevnc","JobId":"2284","Queue":"q_x86_expr","Cluster":"aip","CPU_Hours":6.4436111111111,"User":"amd_app","Mem_GB_Hours":0.53105926513672,"runTime":6.4436111111111,"JobDescription":"pvtest01","GPU_Cost":0,"CPU_Cost":6.4436111111111,"Mem_Cost":0,"App_Cost":0},{"EndDate":"2020\/06\/26","GPU_Hours":0,"App":"StarCCM","JobName":"cubevnc","JobId":"2291","Queue":"q_x86_expr","Cluster":"aip","CPU_Hours":0.48666666666667,"User":"amd_app","Mem_GB_Hours":0.70164489746094,"runTime":0.040555555555556,"JobDescription":"starccm_test","GPU_Cost":0,"CPU_Cost":0.48666666666667,"Mem_Cost":0,"App_Cost":0},{"EndDate":"2020\/06\/26","GPU_Hours":0,"App":"Fluent","JobName":"cubevnc","JobId":"2286","Queue":"q_x86_share","Cluster":"aip","CPU_Hours":645.24666666667,"User":"amd_app","Mem_GB_Hours":0.095176696777344,"runTime":53.770555555556,"JobDescription":"fluent_icepak","GPU_Cost":0,"CPU_Cost":645.24666666667,"Mem_Cost":0,"App_Cost":6452.4666666667},{"EndDate":"2020\/06\/26","GPU_Hours":0,"App":"Fluent","JobName":"cubevnc","JobId":"2292","Queue":"q_x86_share","Cluster":"aip","CPU_Hours":3.5966666666667,"User":"amd_app","Mem_GB_Hours":0.10586166381836,"runTime":0.29972222222222,"JobDescription":"fluent_icepak","GPU_Cost":0,"CPU_Cost":3.5966666666667,"Mem_Cost":0,"App_Cost":35.966666666667},{"EndDate":"2020\/06\/26","GPU_Hours":0,"App":"StarCCM","JobName":"cubevnc","JobId":"2294","Queue":"q_x86_expr","Cluster":"aip","CPU_Hours":0.018888888888889,"User":"amd_app","Mem_GB_Hours":0.673583984375,"runTime":0.018888888888889,"JobDescription":"startest2","GPU_Cost":0,"CPU_Cost":0.018888888888889,"Mem_Cost":0,"App_Cost":0},{"EndDate":"2020\/06\/26","GPU_Hours":0,"App":"StarCCM","JobName":"cubevnc","JobId":"2295","Queue":"q_x86_share","Cluster":"aip","CPU_Hours":0.035,"User":"amd_app","Mem_GB_Hours":0.68477630615234,"runTime":0.035,"JobDescription":"starccm_test_3","GPU_Cost":0,"CPU_Cost":0.035,"Mem_Cost":0,"App_Cost":0},{"EndDate":"2020\/06\/28","GPU_Hours":0,"App":"Abaqus","JobName":"cubevnc","JobId":"2501","Queue":"q_x86_expr","Cluster":"aip","CPU_Hours":0.165,"User":"amd_app","Mem_GB_Hours":0.61511993408203,"runTime":0.165,"JobDescription":"shili01","GPU_Cost":0,"CPU_Cost":0.165,"Mem_Cost":0,"App_Cost":0},{"EndDate":"2020\/06\/28","GPU_Hours":0,"App":"Abaqus2017","JobName":"Job-091337","JobId":"2504","Queue":"q_x86_expr","Cluster":"aip","CPU_Hours":0.14555555555556,"User":"amd_app","Mem_GB_Hours":0.010978698730469,"runTime":0.036388888888889,"JobDescription":"Job-091337-explicit","GPU_Cost":0,"CPU_Cost":0.14555555555556,"Mem_Cost":0,"App_Cost":0},{"EndDate":"2020\/06\/28","GPU_Hours":0,"App":"Abaqus2017","JobName":"Job-091731","JobId":"2505","Queue":"q_x86_expr","Cluster":"aip","CPU_Hours":0.0425,"User":"amd_app","Mem_GB_Hours":0.010971069335938,"runTime":0.0425,"JobDescription":"Job-091731-explicit","GPU_Cost":0,"CPU_Cost":0.0425,"Mem_Cost":0,"App_Cost":0},{"EndDate":"2020\/06\/28","GPU_Hours":0,"App":"Abaqus","JobName":"cubevnc","JobId":"2503","Queue":"q_x86_expr","Cluster":"aip","CPU_Hours":0.56055555555556,"User":"amd_app","Mem_GB_Hours":0.66959381103516,"runTime":0.56055555555556,"JobDescription":"shili01","GPU_Cost":0,"CPU_Cost":0.56055555555556,"Mem_Cost":0,"App_Cost":0},{"EndDate":"2020\/06\/28","GPU_Hours":0,"App":"ParaView","JobName":"cubevnc","JobId":"2512","Queue":"q_x86_expr","Cluster":"aip","CPU_Hours":0.27055555555556,"User":"amd_app","Mem_GB_Hours":0.47073745727539,"runTime":0.27055555555556,"JobDescription":"pventry01","GPU_Cost":0,"CPU_Cost":0.27055555555556,"Mem_Cost":0,"App_Cost":0},{"EndDate":"2020\/06\/28","GPU_Hours":0,"App":"StarCCM","JobName":"cubevnc","JobId":"2296","Queue":"q_x86_share","Cluster":"aip","CPU_Hours":44.868611111111,"User":"amd_app","Mem_GB_Hours":0.84294128417969,"runTime":44.868611111111,"JobDescription":"starccm_test_3","GPU_Cost":0,"CPU_Cost":44.868611111111,"Mem_Cost":0,"App_Cost":0},{"EndDate":"2020\/06\/28","GPU_Hours":0,"App":"Fluent","JobName":"cubevnc","JobId":"2293","Queue":"q_x86_share","Cluster":"aip","CPU_Hours":550.50333333333,"User":"amd_app","Mem_GB_Hours":0.12493133544922,"runTime":45.875277777778,"JobDescription":"fluent_icepak","GPU_Cost":0,"CPU_Cost":550.50333333333,"Mem_Cost":0,"App_Cost":5505.0333333333},{"EndDate":"2020\/06\/28","GPU_Hours":0,"App":"StarCCM","JobName":"cubevnc","JobId":"2518","Queue":"q_x86_share","Cluster":"aip","CPU_Hours":0.15333333333333,"User":"amd_app","Mem_GB_Hours":0.070487976074219,"runTime":0.012777777777778,"JobDescription":"starccm_test","GPU_Cost":0,"CPU_Cost":0.15333333333333,"Mem_Cost":0,"App_Cost":0},{"EndDate":"2020\/06\/28","GPU_Hours":0,"App":"StarCCM","JobName":"cubevnc","JobId":"2519","Queue":"q_x86_share","Cluster":"aip","CPU_Hours":3.2833333333333,"User":"amd_app","Mem_GB_Hours":0.74877548217773,"runTime":0.27361111111111,"JobDescription":"starccm_test","GPU_Cost":0,"CPU_Cost":3.2833333333333,"Mem_Cost":0,"App_Cost":0},{"EndDate":"2020\/06\/28","GPU_Hours":0,"App":"PointWise","JobName":"cubevnc","JobId":"2522","Queue":"q_x86_expr","Cluster":"aip","CPU_Hours":0.14055555555556,"User":"amd_app","Mem_GB_Hours":0.28495788574219,"runTime":0.14055555555556,"JobDescription":"PW_test","GPU_Cost":0,"CPU_Cost":0.14055555555556,"Mem_Cost":0,"App_Cost":0},{"EndDate":"2020\/06\/29","GPU_Hours":0,"App":"LSPrePost","JobName":"cubevnc","JobId":"2543","Queue":"q_x86_expr","Cluster":"aip","CPU_Hours":0.0038888888888889,"User":"amd_app","Mem_GB_Hours":0.25077056884766,"runTime":0.0038888888888889,"JobDescription":"test","GPU_Cost":0,"CPU_Cost":0.0038888888888889,"Mem_Cost":0,"App_Cost":0},{"EndDate":"2020\/06\/29","GPU_Hours":0,"App":"Abaqus","JobName":"cubevnc","JobId":"2544","Queue":"q_x86_expr","Cluster":"aip","CPU_Hours":0.013055555555556,"User":"amd_app","Mem_GB_Hours":0.41514587402344,"runTime":0.013055555555556,"JobDescription":"shili01","GPU_Cost":0,"CPU_Cost":0.013055555555556,"Mem_Cost":0,"App_Cost":0},{"EndDate":"2020\/06\/29","GPU_Hours":0,"App":"Abaqus2017","JobName":"Job-154939","JobId":"2546","Queue":"q_x86_expr","Cluster":"aip","CPU_Hours":0.33166666666667,"User":"amd_app","Mem_GB_Hours":0.011817932128906,"runTime":0.33166666666667,"JobDescription":"Job-154939-qiuxiao","GPU_Cost":0,"CPU_Cost":0.33166666666667,"Mem_Cost":0,"App_Cost":0},{"EndDate":"2020\/06\/29","GPU_Hours":0,"App":"Abaqus","JobName":"cubevnc","JobId":"2545","Queue":"q_x86_expr","Cluster":"aip","CPU_Hours":1.4555555555556,"User":"amd_app","Mem_GB_Hours":0.48590087890625,"runTime":1.4555555555556,"JobDescription":"shili01","GPU_Cost":0,"CPU_Cost":1.4555555555556,"Mem_Cost":0,"App_Cost":0},{"EndDate":"2020\/06\/29","GPU_Hours":0,"App":"Fluent","JobName":"cubevnc","JobId":"2553","Queue":"q_x86_share","Cluster":"aip","CPU_Hours":0.043333333333333,"User":"amd_app","Mem_GB_Hours":0.08551025390625,"runTime":0.0036111111111111,"JobDescription":"fluent_test","GPU_Cost":0,"CPU_Cost":0.043333333333333,"Mem_Cost":0,"App_Cost":0.43333333333333},{"EndDate":"2020\/06\/29","GPU_Hours":0,"App":"Fluent","JobName":"cubevnc","JobId":"2554","Queue":"q_x86_share","Cluster":"aip","CPU_Hours":0.073333333333333,"User":"amd_app","Mem_GB_Hours":0.091545104980469,"runTime":0.0061111111111111,"JobDescription":"fluent_test","GPU_Cost":0,"CPU_Cost":0.073333333333333,"Mem_Cost":0,"App_Cost":0.73333333333333},{"EndDate":"2020\/06\/29","GPU_Hours":0,"App":"Fluent","JobName":"cubevnc","JobId":"2555","Queue":"q_x86_share","Cluster":"aip","CPU_Hours":0.086666666666667,"User":"amd_app","Mem_GB_Hours":0.091693878173828,"runTime":0.0072222222222222,"JobDescription":"fluent_test","GPU_Cost":0,"CPU_Cost":0.086666666666667,"Mem_Cost":0,"App_Cost":0.86666666666667},{"EndDate":"2020\/06\/29","GPU_Hours":0,"App":"Fluent","JobName":"cubevnc","JobId":"2556","Queue":"q_x86_share","Cluster":"aip","CPU_Hours":0.10333333333333,"User":"amd_app","Mem_GB_Hours":0.099014282226562,"runTime":0.0086111111111111,"JobDescription":"fluent_test","GPU_Cost":0,"CPU_Cost":0.10333333333333,"Mem_Cost":0,"App_Cost":1.0333333333333},{"EndDate":"2020\/06\/29","GPU_Hours":0,"App":"StarCCM","JobName":"cubevnc","JobId":"2520","Queue":"q_x86_share","Cluster":"aip","CPU_Hours":303.51666666667,"User":"amd_app","Mem_GB_Hours":0.92267990112305,"runTime":25.293055555556,"JobDescription":"starccm_test","GPU_Cost":0,"CPU_Cost":303.51666666667,"Mem_Cost":0,"App_Cost":0},{"EndDate":"2020\/06\/29","GPU_Hours":0,"App":"StarCCM","JobName":"cubevnc","JobId":"2557","Queue":"q_x86_share","Cluster":"aip","CPU_Hours":2.1366666666667,"User":"amd_app","Mem_GB_Hours":0.068187713623047,"runTime":0.17805555555556,"JobDescription":"starccm_test","GPU_Cost":0,"CPU_Cost":2.1366666666667,"Mem_Cost":0,"App_Cost":0},{"EndDate":"2020\/06\/30","GPU_Hours":0,"App":"Fluent","JobName":"cubevnc","JobId":"2559","Queue":"q_x86_share","Cluster":"aip","CPU_Hours":112.41666666667,"User":"amd_app","Mem_GB_Hours":0.10807037353516,"runTime":9.3680555555556,"JobDescription":"fluent_test","GPU_Cost":0,"CPU_Cost":112.41666666667,"Mem_Cost":0,"App_Cost":1124.1666666667},{"EndDate":"2020\/06\/30","GPU_Hours":0,"App":"LS-DYNA-R9single","JobName":"\/home\/export\/online1\/amd_app\/jobdata\/default\/twocars03\/Caravan-V03c-2400k-main-shell16-10ms.k","JobId":"2571","Queue":"q_x86_expr","Cluster":"aip","CPU_Hours":4.48,"User":"amd_app","Mem_GB_Hours":0.014957427978516,"runTime":0.18666666666667,"JobDescription":"Caravan-V03c-2400k-main-shell16-10ms.k","GPU_Cost":0,"CPU_Cost":4.48,"Mem_Cost":0,"App_Cost":0},{"EndDate":"2020\/06\/30","GPU_Hours":0,"App":"LSPrePost","JobName":"cubevnc","JobId":"2570","Queue":"q_x86_expr","Cluster":"aip","CPU_Hours":0.68611111111111,"User":"amd_app","Mem_GB_Hours":1.3604278564453,"runTime":0.68611111111111,"JobDescription":"shili02","GPU_Cost":0,"CPU_Cost":0.68611111111111,"Mem_Cost":0,"App_Cost":0},{"EndDate":"2020\/06\/30","GPU_Hours":0,"App":"LSPrePost","JobName":"cubevnc","JobId":"2573","Queue":"q_x86_expr","Cluster":"aip","CPU_Hours":0.26611111111111,"User":"amd_app","Mem_GB_Hours":0.38096618652344,"runTime":0.26611111111111,"JobDescription":"shili02","GPU_Cost":0,"CPU_Cost":0.26611111111111,"Mem_Cost":0,"App_Cost":0},{"EndDate":"2020\/06\/30","GPU_Hours":0,"App":"TankSimulator","JobName":"cubevnc","JobId":"2574","Queue":"q_x86_expr","Cluster":"aip","CPU_Hours":0.061666666666667,"User":"amd_app","Mem_GB_Hours":0.17520141601562,"runTime":0.061666666666667,"JobDescription":"Tanknew001","GPU_Cost":0,"CPU_Cost":0.061666666666667,"Mem_Cost":0,"App_Cost":0.30833333333333},{"EndDate":"2020\/06\/30","GPU_Hours":0,"App":"Fluent","JobName":"cubevnc","JobId":"2588","Queue":"q_x86_share","Cluster":"aip","CPU_Hours":0.63111111111111,"User":"amd_app","Mem_GB_Hours":0.071060180664062,"runTime":0.019722222222222,"JobDescription":"fluent_test_32","GPU_Cost":0,"CPU_Cost":0.63111111111111,"Mem_Cost":0,"App_Cost":6.3111111111111},{"EndDate":"2020\/06\/30","GPU_Hours":0,"App":"Fluent","JobName":"cubevnc","JobId":"2596","Queue":"q_x86_share","Cluster":"aip","CPU_Hours":0.42916666666667,"User":"amd_app","Mem_GB_Hours":0.18845748901367,"runTime":0.028611111111111,"JobDescription":"starccm_test_0630_2","GPU_Cost":0,"CPU_Cost":0.42916666666667,"Mem_Cost":0,"App_Cost":4.2916666666667},{"EndDate":"2020\/06\/30","GPU_Hours":0,"App":"ICEM-CFD","JobName":"cubevnc","JobId":"2577","Queue":"q_x86_expr","Cluster":"aip","CPU_Hours":0.88638888888889,"User":"amd_app","Mem_GB_Hours":1.5380249023438,"runTime":0.88638888888889,"JobDescription":"icemcfd","GPU_Cost":0,"CPU_Cost":0.88638888888889,"Mem_Cost":0,"App_Cost":0},{"EndDate":"2020\/06\/30","GPU_Hours":0,"App":"ICEM-CFD","JobName":"cubevnc","JobId":"2583","Queue":"q_x86_expr","Cluster":"aip","CPU_Hours":0.33138888888889,"User":"amd_app","Mem_GB_Hours":1.4328918457031,"runTime":0.33138888888889,"JobDescription":"icemcfd_test","GPU_Cost":0,"CPU_Cost":0.33138888888889,"Mem_Cost":0,"App_Cost":0},{"EndDate":"2020\/06\/30","GPU_Hours":0,"App":"TankSimulator","JobName":"cubevnc","JobId":"2575","Queue":"q_x86_expr","Cluster":"aip","CPU_Hours":4.0380555555556,"User":"amd_app","Mem_GB_Hours":0.17316436767578,"runTime":4.0380555555556,"JobDescription":"Tanknew001","GPU_Cost":0,"CPU_Cost":4.0380555555556,"Mem_Cost":0,"App_Cost":20.190277777778},{"EndDate":"2020\/06\/30","GPU_Hours":0,"App":"Fluent","JobName":"cubevnc","JobId":"2594","Queue":"q_x86_share","Cluster":"aip","CPU_Hours":48.026666666667,"User":"amd_app","Mem_GB_Hours":0.084709167480469,"runTime":3.0016666666667,"JobDescription":"fluent_test_0630","GPU_Cost":0,"CPU_Cost":48.026666666667,"Mem_Cost":0,"App_Cost":480.26666666667},{"EndDate":"2020\/06\/30","GPU_Hours":0,"App":"Fluent","JobName":"cubevnc","JobId":"2601","Queue":"q_x86_share","Cluster":"aip","CPU_Hours":25.515,"User":"amd_app","Mem_GB_Hours":0.084541320800781,"runTime":2.835,"JobDescription":"fluent_0630_2","GPU_Cost":0,"CPU_Cost":25.515,"Mem_Cost":0,"App_Cost":255.15},{"EndDate":"2020\/06\/30","GPU_Hours":0,"App":"Fluent","JobName":"cubevnc","JobId":"2597","Queue":"q_x86_share","Cluster":"aip","CPU_Hours":34.7,"User":"amd_app","Mem_GB_Hours":0.15325546264648,"runTime":2.8916666666667,"JobDescription":"fluent_0630_1","GPU_Cost":0,"CPU_Cost":34.7,"Mem_Cost":0,"App_Cost":347},{"EndDate":"2020\/06\/30","GPU_Hours":0,"App":"StarCCM","JobName":"cubevnc","JobId":"2631","Queue":"q_x86_expr","Cluster":"aip","CPU_Hours":0.045555555555556,"User":"amd_app","Mem_GB_Hours":0.06005859375,"runTime":0.011388888888889,"JobDescription":"starccm_test","GPU_Cost":0,"CPU_Cost":0.045555555555556,"Mem_Cost":0,"App_Cost":0},{"EndDate":"2020\/06\/30","GPU_Hours":0,"App":"StarCCM","JobName":"cubevnc","JobId":"2632","Queue":"q_x86_share","Cluster":"aip","CPU_Hours":0.23111111111111,"User":"amd_app","Mem_GB_Hours":0.6766357421875,"runTime":0.057777777777778,"JobDescription":"starccm_test_2","GPU_Cost":0,"CPU_Cost":0.23111111111111,"Mem_Cost":0,"App_Cost":0},{"EndDate":"2020\/06\/30","GPU_Hours":0,"App":"Fluent","JobName":"cubevnc","JobId":"2633","Queue":"q_x86_share","Cluster":"aip","CPU_Hours":0.19555555555556,"User":"amd_app","Mem_GB_Hours":0.078922271728516,"runTime":0.012222222222222,"JobDescription":"fluent_test_0630","GPU_Cost":0,"CPU_Cost":0.19555555555556,"Mem_Cost":0,"App_Cost":1.9555555555556},{"EndDate":"2020\/06\/30","GPU_Hours":0,"App":"Fluent","JobName":"cubevnc","JobId":"2638","Queue":"q_x86_expr","Cluster":"aip","CPU_Hours":0.43555555555556,"User":"amd_app","Mem_GB_Hours":0.10259628295898,"runTime":0.10888888888889,"JobDescription":"fluent_test_2","GPU_Cost":0,"CPU_Cost":0.43555555555556,"Mem_Cost":0,"App_Cost":4.3555555555556},{"EndDate":"2020\/06\/30","GPU_Hours":0,"App":"Fluent","JobName":"cubevnc","JobId":"2636","Queue":"q_x86_expr","Cluster":"aip","CPU_Hours":0.66777777777778,"User":"amd_app","Mem_GB_Hours":0.070442199707031,"runTime":0.16694444444444,"JobDescription":"fluent_test","GPU_Cost":0,"CPU_Cost":0.66777777777778,"Mem_Cost":0,"App_Cost":6.6777777777778},{"EndDate":"2020\/06\/30","GPU_Hours":0,"App":"LS-DYNA-R9single","JobName":"\/home\/export\/base\/nsccwuxi_amd\/amd_app\/online1\/jobdata\/default\/twocars03\/Caravan-V03c-2400k-main-shell16-10ms.k","JobId":"2642","Queue":"q_x86_share","Cluster":"aip","CPU_Hours":2.0933333333333,"User":"amd_app","Mem_GB_Hours":0.012203216552734,"runTime":0.043611111111111,"JobDescription":"Caravan-V03c-2400k-main-shell16-10ms.k","GPU_Cost":0,"CPU_Cost":2.0933333333333,"Mem_Cost":0,"App_Cost":0},{"EndDate":"2020\/06\/30","GPU_Hours":0,"App":"TankSim","JobName":"cubevnc","JobId":"2644","Queue":"q_x86_expr","Cluster":"aip","CPU_Hours":0.0044444444444444,"User":"amd_app","Mem_GB_Hours":0.11348342895508,"runTime":0.0044444444444444,"JobDescription":"test3","GPU_Cost":0,"CPU_Cost":0.0044444444444444,"Mem_Cost":0,"App_Cost":0},{"EndDate":"2020\/06\/30","GPU_Hours":0,"App":"Fluent","JobName":"cubevnc","JobId":"2643","Queue":"q_x86_share","Cluster":"aip","CPU_Hours":1.12,"User":"amd_app","Mem_GB_Hours":0.083965301513672,"runTime":0.28,"JobDescription":"fluent_test","GPU_Cost":0,"CPU_Cost":1.12,"Mem_Cost":0,"App_Cost":11.2},{"EndDate":"2020\/06\/30","GPU_Hours":0,"App":"Fluent","JobName":"cubevnc","JobId":"2646","Queue":"q_x86_expr","Cluster":"aip","CPU_Hours":0.010277777777778,"User":"amd_app","Mem_GB_Hours":0.066268920898438,"runTime":0.010277777777778,"JobDescription":"fluent_test","GPU_Cost":0,"CPU_Cost":0.010277777777778,"Mem_Cost":0,"App_Cost":0.10277777777778},{"EndDate":"2020\/06\/30","GPU_Hours":0,"App":"StarCCM","JobName":"cubevnc","JobId":"2650","Queue":"q_x86_expr","Cluster":"aip","CPU_Hours":0.13777777777778,"User":"amd_app","Mem_GB_Hours":0.67435455322266,"runTime":0.034444444444444,"JobDescription":"starccm_test_2","GPU_Cost":0,"CPU_Cost":0.13777777777778,"Mem_Cost":0,"App_Cost":0},{"EndDate":"2020\/06\/30","GPU_Hours":0,"App":"StarCCM","JobName":"cubevnc","JobId":"2652","Queue":"q_x86_expr","Cluster":"aip","CPU_Hours":0.26,"User":"amd_app","Mem_GB_Hours":0.65840911865234,"runTime":0.065,"JobDescription":"starccm_test_2","GPU_Cost":0,"CPU_Cost":0.26,"Mem_Cost":0,"App_Cost":0},{"EndDate":"2020\/06\/30","GPU_Hours":0,"App":"StarCCM","JobName":"cubevnc","JobId":"2657","Queue":"q_x86_expr","Cluster":"aip","CPU_Hours":0.12888888888889,"User":"amd_app","Mem_GB_Hours":0.68797302246094,"runTime":0.032222222222222,"JobDescription":"starccm_test_4","GPU_Cost":0,"CPU_Cost":0.12888888888889,"Mem_Cost":0,"App_Cost":0},{"EndDate":"2020\/06\/30","GPU_Hours":0,"App":"LS-DYNA-R9single","JobName":"\/home\/export\/base\/nsccwuxi_amd\/amd_app\/online1\/jobdata\/default\/twocars03\/Caravan-V03c-2400k-main-shell16-10ms.k","JobId":"2659","Queue":"q_x86_expr","Cluster":"aip","CPU_Hours":0.013333333333333,"User":"amd_app","Mem_GB_Hours":0.010295867919922,"runTime":0.00027777777777778,"JobDescription":"Caravan-V03c-2400k-main-shell16-10ms.k","GPU_Cost":0,"CPU_Cost":0.013333333333333,"Mem_Cost":0,"App_Cost":0},{"EndDate":"2020\/06\/30","GPU_Hours":0,"App":"LS-DYNA-R9single","JobName":"\/home\/export\/base\/nsccwuxi_amd\/amd_app\/online1\/jobdata\/default\/twocars03\/Caravan-V03c-2400k-main-shell16-10ms.k","JobId":"2660","Queue":"q_x86_share","Cluster":"aip","CPU_Hours":6.88,"User":"amd_app","Mem_GB_Hours":0.011165618896484,"runTime":0.14333333333333,"JobDescription":"Caravan-V03c-2400k-main-shell16-10ms.k","GPU_Cost":0,"CPU_Cost":6.88,"Mem_Cost":0,"App_Cost":0},{"EndDate":"2020\/06\/30","GPU_Hours":0,"App":"StarCCM","JobName":"cubevnc","JobId":"2647","Queue":"q_x86_expr","Cluster":"aip","CPU_Hours":2.5044444444444,"User":"amd_app","Mem_GB_Hours":0.69498825073242,"runTime":0.62611111111111,"JobDescription":"starccm_test","GPU_Cost":0,"CPU_Cost":2.5044444444444,"Mem_Cost":0,"App_Cost":0},{"EndDate":"2020\/06\/30","GPU_Hours":0,"App":"PointWise","JobName":"cubevnc","JobId":"2661","Queue":"q_x86_expr","Cluster":"aip","CPU_Hours":0.33388888888889,"User":"amd_app","Mem_GB_Hours":0.30138778686523,"runTime":0.33388888888889,"JobDescription":"pw","GPU_Cost":0,"CPU_Cost":0.33388888888889,"Mem_Cost":0,"App_Cost":0},{"EndDate":"2020\/06\/30","GPU_Hours":0,"App":"StarCCM","JobName":"cubevnc","JobId":"2654","Queue":"q_x86_share","Cluster":"aip","CPU_Hours":2.0844444444444,"User":"amd_app","Mem_GB_Hours":0.6915168762207,"runTime":0.52111111111111,"JobDescription":"starccm_test_3","GPU_Cost":0,"CPU_Cost":2.0844444444444,"Mem_Cost":0,"App_Cost":0},{"EndDate":"2020\/06\/30","GPU_Hours":0,"App":"Fluent","JobName":"cubevnc","JobId":"2694","Queue":"q_x86_expr","Cluster":"aip","CPU_Hours":0.06,"User":"amd_app","Mem_GB_Hours":0.028049468994141,"runTime":0.0025,"JobDescription":"fl01","GPU_Cost":0,"CPU_Cost":0.06,"Mem_Cost":0,"App_Cost":0.6}],"App_Cost":18028.334722222,"CPU_Cost":4194.1408333333,"Mem_Cost":0,"GPU_Cost":0,"Total_Cost":22222.475555556}