{"GPU_Hours":1929.3716666667,"App_Hours":{"TankSim":{"Hours":273.99027777778,"UnitPrice":0.7,"Cost":191.79319444444},"LSPrePost":{"Hours":97.436666666667,"UnitPrice":0,"Cost":0},"Abaqus":{"Hours":517.79861111111,"UnitPrice":3.5,"Cost":1812.2951388889},"Fluent":{"Hours":909.16611111111,"UnitPrice":3.5,"Cost":3182.0813888889},"Tanksimulator-Openfoam":{"Hours":55.363333333333,"UnitPrice":0,"Cost":0},"Tanksimulator-Calculix":{"Hours":55.506666666667,"UnitPrice":0,"Cost":0},"LS-DYNA":{"Hours":29.546666666667,"UnitPrice":3.5,"Cost":103.41333333333},"StarCCM":{"Hours":246.82472222222,"UnitPrice":3.5,"Cost":863.88652777778},"ICEPAK":{"Hours":255.19,"UnitPrice":0,"Cost":0},"Hypermesh":{"Hours":501.68638888889,"UnitPrice":0,"Cost":0},"ParaView":{"Hours":200.24972222222,"UnitPrice":0.35,"Cost":70.087402777778},"Ansys-APDL":{"Hours":0.023888888888889,"UnitPrice":0,"Cost":0},"Abaqus2017":{"Hours":86.208333333333,"UnitPrice":3.5,"Cost":301.72916666667},"AbaqusBatch":{"Hours":0.0525,"UnitPrice":0,"Cost":0},"Abaqus\u63d0\u4ea4inp":{"Hours":9.5377777777778,"UnitPrice":0,"Cost":0},"PointWise":{"Hours":112.37138888889,"UnitPrice":3.5,"Cost":393.29986111111},"FluentBatch":{"Hours":29.632777777778,"UnitPrice":0,"Cost":0},"StarCCMBatch":{"Hours":1.3172222222222,"UnitPrice":0,"Cost":0},"Abaqus614\u63d0\u4ea4inp\u591a\u8282\u70b9":{"Hours":99.9425,"UnitPrice":0,"Cost":0},"Abaqus2017\u63d0\u4ea4inp":{"Hours":4.6666666666667,"UnitPrice":0,"Cost":0},"AnsysAPDL":{"Hours":138.94166666667,"UnitPrice":0,"Cost":0},"ICEM-CFD":{"Hours":1.3055555555556,"UnitPrice":3.5,"Cost":4.5694444444444},"LSDYNA":{"Hours":0.39388888888889,"UnitPrice":0,"Cost":0},"STARCCM+":{"Hours":0.26722222222222,"UnitPrice":0,"Cost":0}},"Month":"2020-08","CPU_Hours":3633.2352777778,"Users":{"amd_app":8896.5789137406},"Mem_GB_Hours":2078.1183708975,"App_Cost":6923.1554583333,"Mem_Cost":145.46828596283,"GPU_Cost":675.28008333333,"Total_Cost":8896.5789137406,"CPU_Cost":1152.6750861111,"Details":[{"EndDate":"2020\/08\/03","GPU_Hours":120.00027777778,"App":"TankSim","JobName":"cubevnc","JobId":"5923","Queue":"local","Cluster":"aip","CPU_Hours":120.00027777778,"User":"amd_app","Mem_GB_Hours":20.157212187449,"runTime":120.00027777778,"JobDescription":"tanksim02","GPU_Cost":42.000097222222,"CPU_Cost":42.000097222222,"Mem_Cost":1.4110048531214,"App_Cost":84.000194444444},{"EndDate":"2020\/08\/03","GPU_Hours":0.13777777777778,"App":"LSPrePost","JobName":"cubevnc","JobId":"6394","Queue":"local","Cluster":"aip","CPU_Hours":0.13777777777778,"User":"amd_app","Mem_GB_Hours":0.036975640190972,"runTime":0.13777777777778,"JobDescription":"dyna01","GPU_Cost":0.048222222222222,"CPU_Cost":0.048222222222222,"Mem_Cost":0.0025882948133681,"App_Cost":0},{"EndDate":"2020\/08\/03","GPU_Hours":0.0052777777777778,"App":"LSPrePost","JobName":"cubevnc","JobId":"6396","Queue":"local","Cluster":"aip","CPU_Hours":0.0052777777777778,"User":"amd_app","Mem_GB_Hours":0.00093077447679308,"runTime":0.0052777777777778,"JobDescription":"dyna01","GPU_Cost":0.0018472222222222,"CPU_Cost":0.0018472222222222,"Mem_Cost":6.5154213375515e-5,"App_Cost":0},{"EndDate":"2020\/08\/03","GPU_Hours":0.38527777777778,"App":"LSPrePost","JobName":"cubevnc","JobId":"6397","Queue":"local","Cluster":"aip","CPU_Hours":0.38527777777778,"User":"amd_app","Mem_GB_Hours":0.09278477244907,"runTime":0.38527777777778,"JobDescription":"dyna02","GPU_Cost":0.13484722222222,"CPU_Cost":0.13484722222222,"Mem_Cost":0.0064949340714349,"App_Cost":0},{"EndDate":"2020\/08\/03","GPU_Hours":0.11305555555556,"App":"LSPrePost","JobName":"cubevnc","JobId":"6398","Queue":"local","Cluster":"aip","CPU_Hours":0.11305555555556,"User":"amd_app","Mem_GB_Hours":0.024162485334608,"runTime":0.11305555555556,"JobDescription":"dyna01","GPU_Cost":0.039569444444444,"CPU_Cost":0.039569444444444,"Mem_Cost":0.0016913739734226,"App_Cost":0},{"EndDate":"2020\/08\/03","GPU_Hours":0.8225,"App":"Abaqus","JobName":"cubevnc","JobId":"6395","Queue":"local","Cluster":"aip","CPU_Hours":0.8225,"User":"amd_app","Mem_GB_Hours":0.36541924476624,"runTime":0.8225,"JobDescription":"abaqus01","GPU_Cost":0.287875,"CPU_Cost":0.287875,"Mem_Cost":0.025579347133636,"App_Cost":2.87875},{"EndDate":"2020\/08\/03","GPU_Hours":0.12,"App":"LSPrePost","JobName":"cubevnc","JobId":"6400","Queue":"local","Cluster":"aip","CPU_Hours":0.12,"User":"amd_app","Mem_GB_Hours":0.026607513427734,"runTime":0.12,"JobDescription":"dyna02","GPU_Cost":0.042,"CPU_Cost":0.042,"Mem_Cost":0.0018625259399414,"App_Cost":0},{"EndDate":"2020\/08\/03","GPU_Hours":0.26166666666667,"App":"Abaqus","JobName":"cubevnc","JobId":"6402","Queue":"local","Cluster":"aip","CPU_Hours":0.26166666666667,"User":"amd_app","Mem_GB_Hours":0.11649449030558,"runTime":0.26166666666667,"JobDescription":"abaqus03","GPU_Cost":0.091583333333333,"CPU_Cost":0.091583333333333,"Mem_Cost":0.0081546143213908,"App_Cost":0.91583333333333},{"EndDate":"2020\/08\/03","GPU_Hours":0.11305555555556,"App":"Abaqus","JobName":"cubevnc","JobId":"6406","Queue":"local","Cluster":"aip","CPU_Hours":0.11305555555556,"User":"amd_app","Mem_GB_Hours":0.044362436930339,"runTime":0.11305555555556,"JobDescription":"abaqus03","GPU_Cost":0.039569444444444,"CPU_Cost":0.039569444444444,"Mem_Cost":0.0031053705851237,"App_Cost":0.39569444444444},{"EndDate":"2020\/08\/03","GPU_Hours":0,"App":"Fluent","JobName":"cubevnc","JobId":"6417","Queue":"q_x86_share","Cluster":"aip","CPU_Hours":1.67,"User":"amd_app","Mem_GB_Hours":0.034265565872192,"runTime":0.4175,"JobDescription":"testflu01","GPU_Cost":0,"CPU_Cost":0.5845,"Mem_Cost":0.0023985896110535,"App_Cost":5.845},{"EndDate":"2020\/08\/03","GPU_Hours":1.4872222222222,"App":"LSPrePost","JobName":"cubevnc","JobId":"6414","Queue":"local","Cluster":"aip","CPU_Hours":1.4872222222222,"User":"amd_app","Mem_GB_Hours":0.39500936296251,"runTime":1.4872222222222,"JobDescription":"dyna01","GPU_Cost":0.52052777777778,"CPU_Cost":0.52052777777778,"Mem_Cost":0.027650655407376,"App_Cost":0},{"EndDate":"2020\/08\/03","GPU_Hours":1.6094444444444,"App":"Abaqus","JobName":"cubevnc","JobId":"6410","Queue":"local","Cluster":"aip","CPU_Hours":1.6094444444444,"User":"amd_app","Mem_GB_Hours":0.65202564027574,"runTime":1.6094444444444,"JobDescription":"abaqus03","GPU_Cost":0.56330555555556,"CPU_Cost":0.56330555555556,"Mem_Cost":0.045641794819302,"App_Cost":5.6330555555556},{"EndDate":"2020\/08\/03","GPU_Hours":1.4480555555556,"App":"Abaqus","JobName":"cubevnc","JobId":"6420","Queue":"local","Cluster":"aip","CPU_Hours":1.4480555555556,"User":"amd_app","Mem_GB_Hours":0.52684134907193,"runTime":1.4480555555556,"JobDescription":"abaqus01","GPU_Cost":0.50681944444444,"CPU_Cost":0.50681944444444,"Mem_Cost":0.036878894435035,"App_Cost":5.0681944444444},{"EndDate":"2020\/08\/03","GPU_Hours":4.6555555555556,"App":"LSPrePost","JobName":"cubevnc","JobId":"6419","Queue":"local","Cluster":"aip","CPU_Hours":4.6555555555556,"User":"amd_app","Mem_GB_Hours":1.4373146904839,"runTime":4.6555555555556,"JobDescription":"dyna01","GPU_Cost":1.6294444444444,"CPU_Cost":1.6294444444444,"Mem_Cost":0.10061202833388,"App_Cost":0},{"EndDate":"2020\/08\/04","GPU_Hours":0,"App":"Tanksimulator-Openfoam","JobName":"","JobId":"6434","Queue":"q_x86_share","Cluster":"aip","CPU_Hours":55.363333333333,"User":"amd_app","Mem_GB_Hours":0.10255245950487,"runTime":4.6136111111111,"JobDescription":"testmonpoint","GPU_Cost":0,"CPU_Cost":19.377166666667,"Mem_Cost":0.0071786721653408,"App_Cost":0},{"EndDate":"2020\/08\/04","GPU_Hours":0,"App":"Tanksimulator-Calculix","JobName":"","JobId":"6433","Queue":"q_x86_share","Cluster":"aip","CPU_Hours":55.506666666667,"User":"amd_app","Mem_GB_Hours":0.055335015190972,"runTime":4.6255555555556,"JobDescription":"testmonpoint","GPU_Cost":0,"CPU_Cost":19.427333333333,"Mem_Cost":0.0038734510633681,"App_Cost":0},{"EndDate":"2020\/08\/04","GPU_Hours":0,"App":"LS-DYNA","JobName":"\/home\/export\/base\/nsccwuxi_amd\/amd_app\/online3\/dzj\/dzj\/ls-dynatest\/can\/4.2_Buckling_of_Beer_Can.key","JobId":"6431","Queue":"q_x86_vio_share","Cluster":"aip","CPU_Hours":25.676111111111,"User":"amd_app","Mem_GB_Hours":0.14863395161099,"runTime":12.838055555556,"JobDescription":"4.2_Buckling_of_Beer_Can.key","GPU_Cost":0,"CPU_Cost":5.3919833333333,"Mem_Cost":0.010404376612769,"App_Cost":89.866388888889},{"EndDate":"2020\/08\/04","GPU_Hours":0,"App":"Fluent","JobName":"cubevnc","JobId":"6566","Queue":"q_x86_expr","Cluster":"aip","CPU_Hours":0.99444444444444,"User":"amd_app","Mem_GB_Hours":0.088229327731662,"runTime":0.99444444444444,"JobDescription":"fluent_test_6","GPU_Cost":0,"CPU_Cost":0.34805555555556,"Mem_Cost":0.0061760529412164,"App_Cost":3.4805555555556},{"EndDate":"2020\/08\/04","GPU_Hours":0,"App":"Fluent","JobName":"cubevnc","JobId":"6569","Queue":"q_x86_share","Cluster":"aip","CPU_Hours":0.013888888888889,"User":"amd_app","Mem_GB_Hours":0.0010535452100966,"runTime":0.013888888888889,"JobDescription":"fluent_test_2","GPU_Cost":0,"CPU_Cost":0.0048611111111111,"Mem_Cost":7.374816470676e-5,"App_Cost":0.048611111111111},{"EndDate":"2020\/08\/04","GPU_Hours":0,"App":"Fluent","JobName":"cubevnc","JobId":"6570","Queue":"q_x86_vio_share","Cluster":"aip","CPU_Hours":0.053333333333333,"User":"amd_app","Mem_GB_Hours":0.00031460232204861,"runTime":0.0044444444444444,"JobDescription":"fluent_test10","GPU_Cost":0,"CPU_Cost":0.0112,"Mem_Cost":2.2022162543403e-5,"App_Cost":0.18666666666667},{"EndDate":"2020\/08\/04","GPU_Hours":0,"App":"Fluent","JobName":"cubevnc","JobId":"6571","Queue":"q_x86_vio_share","Cluster":"aip","CPU_Hours":0.020555555555556,"User":"amd_app","Mem_GB_Hours":0.00078601413302951,"runTime":0.010277777777778,"JobDescription":"fluent_test","GPU_Cost":0,"CPU_Cost":0.0043166666666667,"Mem_Cost":5.5020989312066e-5,"App_Cost":0.071944444444444},{"EndDate":"2020\/08\/04","GPU_Hours":24.552777777778,"App":"TankSim","JobName":"cubevnc","JobId":"6427","Queue":"local","Cluster":"aip","CPU_Hours":24.552777777778,"User":"amd_app","Mem_GB_Hours":3.8301898744371,"runTime":24.552777777778,"JobDescription":"Tanksim01","GPU_Cost":8.5934722222222,"CPU_Cost":8.5934722222222,"Mem_Cost":0.2681132912106,"App_Cost":17.186944444444},{"EndDate":"2020\/08\/04","GPU_Hours":0,"App":"StarCCM","JobName":"cubevnc","JobId":"6572","Queue":"q_x86_vio_share_plus","Cluster":"aip","CPU_Hours":0.44583333333333,"User":"amd_app","Mem_GB_Hours":0.0055933252970378,"runTime":0.089166666666667,"JobDescription":"starccm_test10","GPU_Cost":0,"CPU_Cost":0.093625,"Mem_Cost":0.00039153277079264,"App_Cost":1.5604166666667},{"EndDate":"2020\/08\/04","GPU_Hours":6.8655555555556,"App":"LSPrePost","JobName":"cubevnc","JobId":"6564","Queue":"local","Cluster":"aip","CPU_Hours":6.8655555555556,"User":"amd_app","Mem_GB_Hours":1.6777848052979,"runTime":6.8655555555556,"JobDescription":"dyna02","GPU_Cost":2.4029444444444,"CPU_Cost":2.4029444444444,"Mem_Cost":0.11744493637085,"App_Cost":0},{"EndDate":"2020\/08\/04","GPU_Hours":0,"App":"Fluent","JobName":"cubevnc","JobId":"6618","Queue":"q_x86_expr","Cluster":"aip","CPU_Hours":7.9466666666667,"User":"amd_app","Mem_GB_Hours":0.07908198038737,"runTime":0.99333333333333,"JobDescription":"fluent_test","GPU_Cost":0,"CPU_Cost":2.7813333333333,"Mem_Cost":0.0055357386271159,"App_Cost":27.813333333333},{"EndDate":"2020\/08\/05","GPU_Hours":0.0011111111111111,"App":"ICEPAK","JobName":"cubevnc","JobId":"6848","Queue":"local","Cluster":"aip","CPU_Hours":0.0011111111111111,"User":"amd_app","Mem_GB_Hours":1.0062323676215e-5,"runTime":0.0011111111111111,"JobDescription":"icepak01","GPU_Cost":0.00038888888888889,"CPU_Cost":0.00038888888888889,"Mem_Cost":7.0436265733507e-7,"App_Cost":0},{"EndDate":"2020\/08\/05","GPU_Hours":0.0011111111111111,"App":"ICEPAK","JobName":"cubevnc","JobId":"6849","Queue":"local","Cluster":"aip","CPU_Hours":0.0011111111111111,"User":"amd_app","Mem_GB_Hours":1.007080078125e-5,"runTime":0.0011111111111111,"JobDescription":"icepak01","GPU_Cost":0.00038888888888889,"CPU_Cost":0.00038888888888889,"Mem_Cost":7.049560546875e-7,"App_Cost":0},{"EndDate":"2020\/08\/05","GPU_Hours":0.0011111111111111,"App":"ICEPAK","JobName":"cubevnc","JobId":"6850","Queue":"local","Cluster":"aip","CPU_Hours":0.0011111111111111,"User":"amd_app","Mem_GB_Hours":1.0066562228733e-5,"runTime":0.0011111111111111,"JobDescription":"icepak01","GPU_Cost":0.00038888888888889,"CPU_Cost":0.00038888888888889,"Mem_Cost":7.0465935601128e-7,"App_Cost":0},{"EndDate":"2020\/08\/05","GPU_Hours":0.029166666666667,"App":"Hypermesh","JobName":"cubevnc","JobId":"6852","Queue":"local","Cluster":"aip","CPU_Hours":0.029166666666667,"User":"amd_app","Mem_GB_Hours":0.0038009325663249,"runTime":0.029166666666667,"JobDescription":"hm01","GPU_Cost":0.010208333333333,"CPU_Cost":0.010208333333333,"Mem_Cost":0.00026606527964274,"App_Cost":0},{"EndDate":"2020\/08\/05","GPU_Hours":0.059444444444444,"App":"Hypermesh","JobName":"cubevnc","JobId":"6853","Queue":"local","Cluster":"aip","CPU_Hours":0.059444444444444,"User":"amd_app","Mem_GB_Hours":0.013763580322266,"runTime":0.059444444444444,"JobDescription":"hm02","GPU_Cost":0.020805555555556,"CPU_Cost":0.020805555555556,"Mem_Cost":0.00096345062255859,"App_Cost":0},{"EndDate":"2020\/08\/05","GPU_Hours":0.31694444444444,"App":"ICEPAK","JobName":"cubevnc","JobId":"6851","Queue":"local","Cluster":"aip","CPU_Hours":0.31694444444444,"User":"amd_app","Mem_GB_Hours":0.13418972015381,"runTime":0.31694444444444,"JobDescription":"icepak01","GPU_Cost":0.11093055555556,"CPU_Cost":0.11093055555556,"Mem_Cost":0.0093932804107666,"App_Cost":0},{"EndDate":"2020\/08\/05","GPU_Hours":0.047777777777778,"App":"Hypermesh","JobName":"cubevnc","JobId":"6854","Queue":"local","Cluster":"aip","CPU_Hours":0.047777777777778,"User":"amd_app","Mem_GB_Hours":0.0060699123806424,"runTime":0.047777777777778,"JobDescription":"hm01","GPU_Cost":0.016722222222222,"CPU_Cost":0.016722222222222,"Mem_Cost":0.00042489386664497,"App_Cost":0},{"EndDate":"2020\/08\/05","GPU_Hours":0.10138888888889,"App":"Hypermesh","JobName":"cubevnc","JobId":"6856","Queue":"local","Cluster":"aip","CPU_Hours":0.10138888888889,"User":"amd_app","Mem_GB_Hours":0.013977405760023,"runTime":0.10138888888889,"JobDescription":"hm01","GPU_Cost":0.035486111111111,"CPU_Cost":0.035486111111111,"Mem_Cost":0.00097841840320163,"App_Cost":0},{"EndDate":"2020\/08\/05","GPU_Hours":0.11972222222222,"App":"ParaView","JobName":"cubevnc","JobId":"6855","Queue":"local","Cluster":"aip","CPU_Hours":0.11972222222222,"User":"amd_app","Mem_GB_Hours":0.042431001663208,"runTime":0.11972222222222,"JobDescription":"pvtest01","GPU_Cost":0.041902777777778,"CPU_Cost":0.041902777777778,"Mem_Cost":0.0029701701164246,"App_Cost":0.041902777777778},{"EndDate":"2020\/08\/05","GPU_Hours":0.071666666666667,"App":"Hypermesh","JobName":"cubevnc","JobId":"6857","Queue":"local","Cluster":"aip","CPU_Hours":0.071666666666667,"User":"amd_app","Mem_GB_Hours":0.009880739847819,"runTime":0.071666666666667,"JobDescription":"hm04","GPU_Cost":0.025083333333333,"CPU_Cost":0.025083333333333,"Mem_Cost":0.00069165178934733,"App_Cost":0},{"EndDate":"2020\/08\/05","GPU_Hours":0,"App":"Ansys-APDL","JobName":"cubevnc","JobId":"6859","Queue":"local","Cluster":"aip","CPU_Hours":0.0019444444444444,"User":"amd_app","Mem_GB_Hours":2.059088812934e-5,"runTime":0.0019444444444444,"JobDescription":"apdl01","GPU_Cost":0,"CPU_Cost":0.00068055555555556,"Mem_Cost":1.4413621690538e-6,"App_Cost":0},{"EndDate":"2020\/08\/05","GPU_Hours":0,"App":"Ansys-APDL","JobName":"cubevnc","JobId":"6860","Queue":"local","Cluster":"aip","CPU_Hours":0.0019444444444444,"User":"amd_app","Mem_GB_Hours":2.0435121324327e-5,"runTime":0.0019444444444444,"JobDescription":"apdl01","GPU_Cost":0,"CPU_Cost":0.00068055555555556,"Mem_Cost":1.4304584927029e-6,"App_Cost":0},{"EndDate":"2020\/08\/05","GPU_Hours":0,"App":"Ansys-APDL","JobName":"cubevnc","JobId":"6861","Queue":"local","Cluster":"aip","CPU_Hours":0.0019444444444444,"User":"amd_app","Mem_GB_Hours":2.0583470662435e-5,"runTime":0.0019444444444444,"JobDescription":"apdl01","GPU_Cost":0,"CPU_Cost":0.00068055555555556,"Mem_Cost":1.4408429463704e-6,"App_Cost":0},{"EndDate":"2020\/08\/05","GPU_Hours":0,"App":"Ansys-APDL","JobName":"cubevnc","JobId":"6864","Queue":"local","Cluster":"aip","CPU_Hours":0.0019444444444444,"User":"amd_app","Mem_GB_Hours":2.0435121324327e-5,"runTime":0.0019444444444444,"JobDescription":"apdl02","GPU_Cost":0,"CPU_Cost":0.00068055555555556,"Mem_Cost":1.4304584927029e-6,"App_Cost":0},{"EndDate":"2020\/08\/05","GPU_Hours":0,"App":"Ansys-APDL","JobName":"cubevnc","JobId":"6865","Queue":"local","Cluster":"aip","CPU_Hours":0.0016666666666667,"User":"amd_app","Mem_GB_Hours":3.4720102945964e-5,"runTime":0.0016666666666667,"JobDescription":"ap03","GPU_Cost":0,"CPU_Cost":0.00058333333333333,"Mem_Cost":2.4304072062174e-6,"App_Cost":0},{"EndDate":"2020\/08\/05","GPU_Hours":0,"App":"Ansys-APDL","JobName":"cubevnc","JobId":"6866","Queue":"local","Cluster":"aip","CPU_Hours":0.0016666666666667,"User":"amd_app","Mem_GB_Hours":1.763661702474e-5,"runTime":0.0016666666666667,"JobDescription":"aatest01","GPU_Cost":0,"CPU_Cost":0.00058333333333333,"Mem_Cost":1.2345631917318e-6,"App_Cost":0},{"EndDate":"2020\/08\/05","GPU_Hours":0,"App":"Ansys-APDL","JobName":"cubevnc","JobId":"6867","Queue":"local","Cluster":"aip","CPU_Hours":0.0019444444444444,"User":"amd_app","Mem_GB_Hours":2.0435121324327e-5,"runTime":0.0019444444444444,"JobDescription":"aa05","GPU_Cost":0,"CPU_Cost":0.00068055555555556,"Mem_Cost":1.4304584927029e-6,"App_Cost":0},{"EndDate":"2020\/08\/05","GPU_Hours":0.58277777777778,"App":"Abaqus","JobName":"cubevnc","JobId":"6863","Queue":"local","Cluster":"aip","CPU_Hours":0.58277777777778,"User":"amd_app","Mem_GB_Hours":0.2399236424764,"runTime":0.58277777777778,"JobDescription":"abaqus03","GPU_Cost":0.20397222222222,"CPU_Cost":0.20397222222222,"Mem_Cost":0.016794654973348,"App_Cost":2.0397222222222},{"EndDate":"2020\/08\/05","GPU_Hours":0,"App":"Abaqus2017","JobName":"Job-121233","JobId":"6877","Queue":"q_x86_vio_share","Cluster":"aip","CPU_Hours":0.054444444444444,"User":"amd_app","Mem_GB_Hours":0.00034959263271756,"runTime":0.013611111111111,"JobDescription":"Job-121233-Model-1_blowmolding","GPU_Cost":0,"CPU_Cost":0.011433333333333,"Mem_Cost":2.4471484290229e-5,"App_Cost":0.19055555555556},{"EndDate":"2020\/08\/05","GPU_Hours":0,"App":"Abaqus2017","JobName":"Job-121456","JobId":"6878","Queue":"q_x86_vio_share","Cluster":"aip","CPU_Hours":0.25333333333333,"User":"amd_app","Mem_GB_Hours":0.00020833757188585,"runTime":0.010555555555556,"JobDescription":"Job-121456-Model-1_blowmolding","GPU_Cost":0,"CPU_Cost":0.0532,"Mem_Cost":1.458363003201e-5,"App_Cost":0.88666666666667},{"EndDate":"2020\/08\/05","GPU_Hours":0,"App":"Abaqus2017","JobName":"Job-121746","JobId":"6879","Queue":"q_x86_share","Cluster":"aip","CPU_Hours":0.29333333333333,"User":"amd_app","Mem_GB_Hours":0.0003108893500434,"runTime":0.012222222222222,"JobDescription":"Job-121746-Model-1_blowmolding","GPU_Cost":0,"CPU_Cost":0.10266666666667,"Mem_Cost":2.1762254503038e-5,"App_Cost":1.0266666666667},{"EndDate":"2020\/08\/05","GPU_Hours":0,"App":"Abaqus2017","JobName":"Job-134556","JobId":"6881","Queue":"q_x86_share","Cluster":"aip","CPU_Hours":0.45333333333333,"User":"amd_app","Mem_GB_Hours":0.00040624830457899,"runTime":0.0094444444444444,"JobDescription":"Job-134556-Model-1_blowmolding","GPU_Cost":0,"CPU_Cost":0.15866666666667,"Mem_Cost":2.843738132053e-5,"App_Cost":1.5866666666667},{"EndDate":"2020\/08\/05","GPU_Hours":2.275,"App":"Abaqus","JobName":"cubevnc","JobId":"6876","Queue":"local","Cluster":"aip","CPU_Hours":2.275,"User":"amd_app","Mem_GB_Hours":1.0452221870422,"runTime":2.275,"JobDescription":"abaqus09","GPU_Cost":0.79625,"CPU_Cost":0.79625,"Mem_Cost":0.073165553092957,"App_Cost":7.9625},{"EndDate":"2020\/08\/05","GPU_Hours":0,"App":"Abaqus2017","JobName":"Job-142948","JobId":"6884","Queue":"q_x86_vio_share","Cluster":"aip","CPU_Hours":0.42,"User":"amd_app","Mem_GB_Hours":0.00044987678527832,"runTime":0.0175,"JobDescription":"Job-142948-e1","GPU_Cost":0,"CPU_Cost":0.0882,"Mem_Cost":3.1491374969482e-5,"App_Cost":1.47},{"EndDate":"2020\/08\/05","GPU_Hours":0,"App":"Abaqus2017","JobName":"Job-143222","JobId":"6885","Queue":"q_x86_vio_share","Cluster":"aip","CPU_Hours":0.10222222222222,"User":"amd_app","Mem_GB_Hours":8.7445576985677e-5,"runTime":0.0063888888888889,"JobDescription":"Job-143222-e1","GPU_Cost":0,"CPU_Cost":0.021466666666667,"Mem_Cost":6.1211903889974e-6,"App_Cost":0.35777777777778},{"EndDate":"2020\/08\/05","GPU_Hours":0,"App":"Abaqus2017","JobName":"Job-143648","JobId":"6886","Queue":"q_x86_vio_share","Cluster":"aip","CPU_Hours":0.017777777777778,"User":"amd_app","Mem_GB_Hours":1.1948479546441e-5,"runTime":0.0011111111111111,"JobDescription":"Job-143648-e1","GPU_Cost":0,"CPU_Cost":0.0037333333333333,"Mem_Cost":8.3639356825087e-7,"App_Cost":0.062222222222222},{"EndDate":"2020\/08\/05","GPU_Hours":0,"App":"Abaqus2017","JobName":"Job-144711","JobId":"6887","Queue":"q_x86_vio_share","Cluster":"aip","CPU_Hours":0.17333333333333,"User":"amd_app","Mem_GB_Hours":0.00022822909884983,"runTime":0.0072222222222222,"JobDescription":"Job-144711-e1","GPU_Cost":0,"CPU_Cost":0.0364,"Mem_Cost":1.5976036919488e-5,"App_Cost":0.60666666666667},{"EndDate":"2020\/08\/05","GPU_Hours":0.58555555555556,"App":"Abaqus","JobName":"cubevnc","JobId":"6883","Queue":"local","Cluster":"aip","CPU_Hours":0.58555555555556,"User":"amd_app","Mem_GB_Hours":0.3942131084866,"runTime":0.58555555555556,"JobDescription":"abaqus01","GPU_Cost":0.20494444444444,"CPU_Cost":0.20494444444444,"Mem_Cost":0.027594917594062,"App_Cost":2.0494444444444},{"EndDate":"2020\/08\/05","GPU_Hours":0.043888888888889,"App":"Abaqus","JobName":"cubevnc","JobId":"6889","Queue":"local","Cluster":"aip","CPU_Hours":0.043888888888889,"User":"amd_app","Mem_GB_Hours":0.026882078382704,"runTime":0.043888888888889,"JobDescription":"abaqus01","GPU_Cost":0.015361111111111,"CPU_Cost":0.015361111111111,"Mem_Cost":0.0018817454867893,"App_Cost":0.15361111111111},{"EndDate":"2020\/08\/05","GPU_Hours":0,"App":"AbaqusBatch","JobName":"","JobId":"6897","Queue":"q_x86_expr","Cluster":"aip","CPU_Hours":0.0061111111111111,"User":"amd_app","Mem_GB_Hours":6.5716637505425e-5,"runTime":0.0061111111111111,"JobDescription":"simple01","GPU_Cost":0,"CPU_Cost":0.0021388888888889,"Mem_Cost":4.6001646253798e-6,"App_Cost":0},{"EndDate":"2020\/08\/05","GPU_Hours":0,"App":"AbaqusBatch","JobName":"","JobId":"6899","Queue":"q_x86_expr","Cluster":"aip","CPU_Hours":0.0047222222222222,"User":"amd_app","Mem_GB_Hours":5.0781038072374e-5,"runTime":0.0047222222222222,"JobDescription":"abaqusnewbatch","GPU_Cost":0,"CPU_Cost":0.0016527777777778,"Mem_Cost":3.5546726650662e-6,"App_Cost":0},{"EndDate":"2020\/08\/05","GPU_Hours":0,"App":"AbaqusBatch","JobName":"","JobId":"6900","Queue":"q_x86_expr","Cluster":"aip","CPU_Hours":0.0075,"User":"amd_app","Mem_GB_Hours":8.0652236938477e-5,"runTime":0.0075,"JobDescription":"abaqusbatchnew","GPU_Cost":0,"CPU_Cost":0.002625,"Mem_Cost":5.6456565856934e-6,"App_Cost":0},{"EndDate":"2020\/08\/05","GPU_Hours":0,"App":"AbaqusBatch","JobName":"","JobId":"6903","Queue":"q_x86_expr","Cluster":"aip","CPU_Hours":0.015,"User":"amd_app","Mem_GB_Hours":0.00016130447387695,"runTime":0.015,"JobDescription":"abaqusbatchnew","GPU_Cost":0,"CPU_Cost":0.00525,"Mem_Cost":1.1291313171387e-5,"App_Cost":0},{"EndDate":"2020\/08\/05","GPU_Hours":0,"App":"AbaqusBatch","JobName":"","JobId":"6904","Queue":"q_x86_expr","Cluster":"aip","CPU_Hours":0.0041666666666667,"User":"amd_app","Mem_GB_Hours":4.4806798299154e-5,"runTime":0.0041666666666667,"JobDescription":"abaqusbatchnew","GPU_Cost":0,"CPU_Cost":0.0014583333333333,"Mem_Cost":3.1364758809408e-6,"App_Cost":0},{"EndDate":"2020\/08\/05","GPU_Hours":0,"App":"AbaqusBatch","JobName":"","JobId":"6906","Queue":"q_x86_expr","Cluster":"aip","CPU_Hours":0.0041666666666667,"User":"amd_app","Mem_GB_Hours":4.4806798299154e-5,"runTime":0.0041666666666667,"JobDescription":"abaqusbatchnew","GPU_Cost":0,"CPU_Cost":0.0014583333333333,"Mem_Cost":3.1364758809408e-6,"App_Cost":0},{"EndDate":"2020\/08\/05","GPU_Hours":0,"App":"AbaqusBatch","JobName":"","JobId":"6909","Queue":"q_x86_expr","Cluster":"aip","CPU_Hours":0.010555555555556,"User":"amd_app","Mem_GB_Hours":0.00011459774441189,"runTime":0.010555555555556,"JobDescription":"abaqusbatchnew","GPU_Cost":0,"CPU_Cost":0.0036944444444444,"Mem_Cost":8.0218421088325e-6,"App_Cost":0},{"EndDate":"2020\/08\/05","GPU_Hours":0,"App":"AbaqusBatch","JobName":"","JobId":"6910","Queue":"q_x86_expr","Cluster":"aip","CPU_Hours":0.00027777777777778,"User":"amd_app","Mem_GB_Hours":3.0401017930773e-6,"runTime":0.00027777777777778,"JobDescription":"abaqusbatchnew","GPU_Cost":0,"CPU_Cost":9.7222222222222e-5,"Mem_Cost":2.1280712551541e-7,"App_Cost":0},{"EndDate":"2020\/08\/05","GPU_Hours":1.71,"App":"Abaqus","JobName":"cubevnc","JobId":"6890","Queue":"local","Cluster":"aip","CPU_Hours":1.71,"User":"amd_app","Mem_GB_Hours":1.0577911376953,"runTime":1.71,"JobDescription":"abaqus03","GPU_Cost":0.5985,"CPU_Cost":0.5985,"Mem_Cost":0.074045379638672,"App_Cost":5.985},{"EndDate":"2020\/08\/05","GPU_Hours":0,"App":"Abaqus\u63d0\u4ea4inp","JobName":"","JobId":"6911","Queue":"q_x86_expr","Cluster":"aip","CPU_Hours":0.92888888888889,"User":"amd_app","Mem_GB_Hours":0.00063538127475315,"runTime":0.058055555555556,"JobDescription":"abqusnew","GPU_Cost":0,"CPU_Cost":0.32511111111111,"Mem_Cost":4.447668923272e-5,"App_Cost":0},{"EndDate":"2020\/08\/05","GPU_Hours":0,"App":"Abaqus\u63d0\u4ea4inp","JobName":"","JobId":"6913","Queue":"q_x86_expr","Cluster":"aip","CPU_Hours":0.17777777777778,"User":"amd_app","Mem_GB_Hours":0.00012160407172309,"runTime":0.011111111111111,"JobDescription":"abaqusbatch01","GPU_Cost":0,"CPU_Cost":0.062222222222222,"Mem_Cost":8.5122850206163e-6,"App_Cost":0},{"EndDate":"2020\/08\/05","GPU_Hours":0.18861111111111,"App":"ICEPAK","JobName":"cubevnc","JobId":"6901","Queue":"local","Cluster":"aip","CPU_Hours":0.18861111111111,"User":"amd_app","Mem_GB_Hours":0.036191282272339,"runTime":0.18861111111111,"JobDescription":"IcePak_test","GPU_Cost":0.066013888888889,"CPU_Cost":0.066013888888889,"Mem_Cost":0.0025333897590637,"App_Cost":0},{"EndDate":"2020\/08\/05","GPU_Hours":1.7277777777778,"App":"ICEPAK","JobName":"cubevnc","JobId":"6891","Queue":"local","Cluster":"aip","CPU_Hours":1.7277777777778,"User":"amd_app","Mem_GB_Hours":0.78534454769558,"runTime":1.7277777777778,"JobDescription":"icepak01","GPU_Cost":0.60472222222222,"CPU_Cost":0.60472222222222,"Mem_Cost":0.054974118338691,"App_Cost":0},{"EndDate":"2020\/08\/05","GPU_Hours":0.044444444444444,"App":"Hypermesh","JobName":"cubevnc","JobId":"6917","Queue":"local","Cluster":"aip","CPU_Hours":0.044444444444444,"User":"amd_app","Mem_GB_Hours":0.0061162312825521,"runTime":0.044444444444444,"JobDescription":"hm02","GPU_Cost":0.015555555555556,"CPU_Cost":0.015555555555556,"Mem_Cost":0.00042813618977865,"App_Cost":0},{"EndDate":"2020\/08\/05","GPU_Hours":0.115,"App":"Hypermesh","JobName":"cubevnc","JobId":"6916","Queue":"local","Cluster":"aip","CPU_Hours":0.115,"User":"amd_app","Mem_GB_Hours":0.015862598419189,"runTime":0.115,"JobDescription":"hm01","GPU_Cost":0.04025,"CPU_Cost":0.04025,"Mem_Cost":0.0011103818893433,"App_Cost":0},{"EndDate":"2020\/08\/05","GPU_Hours":0,"App":"Abaqus\u63d0\u4ea4inp","JobName":"","JobId":"6914","Queue":"q_x86_expr","Cluster":"aip","CPU_Hours":7.5244444444444,"User":"amd_app","Mem_GB_Hours":0.0051468923356798,"runTime":0.47027777777778,"JobDescription":"abaqusbatch01","GPU_Cost":0,"CPU_Cost":2.6335555555556,"Mem_Cost":0.00036028246349759,"App_Cost":0},{"EndDate":"2020\/08\/07","GPU_Hours":39.753055555556,"App":"Hypermesh","JobName":"cubevnc","JobId":"6918","Queue":"local","Cluster":"aip","CPU_Hours":39.753055555556,"User":"amd_app","Mem_GB_Hours":5.4804818259345,"runTime":39.753055555556,"JobDescription":"hm01","GPU_Cost":13.913569444444,"CPU_Cost":13.913569444444,"Mem_Cost":0.38363372781542,"App_Cost":0},{"EndDate":"2020\/08\/07","GPU_Hours":0.22694444444444,"App":"Hypermesh","JobName":"cubevnc","JobId":"7246","Queue":"local","Cluster":"aip","CPU_Hours":0.22694444444444,"User":"amd_app","Mem_GB_Hours":0.029046783447266,"runTime":0.22694444444444,"JobDescription":"hm080701","GPU_Cost":0.079430555555556,"CPU_Cost":0.079430555555556,"Mem_Cost":0.0020332748413086,"App_Cost":0},{"EndDate":"2020\/08\/07","GPU_Hours":0,"App":"Abaqus2017","JobName":"Job-093642","JobId":"7349","Queue":"q_x86_vio_share","Cluster":"aip","CPU_Hours":0.40888888888889,"User":"amd_app","Mem_GB_Hours":0.00039409001668294,"runTime":0.012777777777778,"JobDescription":"Job-093642-e1","GPU_Cost":0,"CPU_Cost":0.085866666666667,"Mem_Cost":2.7586301167806e-5,"App_Cost":1.4311111111111},{"EndDate":"2020\/08\/07","GPU_Hours":0,"App":"Abaqus2017","JobName":"Job-093946","JobId":"7350","Queue":"q_x86_vio_share","Cluster":"aip","CPU_Hours":9.1644444444444,"User":"amd_app","Mem_GB_Hours":0.014436122046577,"runTime":0.57277777777778,"JobDescription":"Job-093946-e1","GPU_Cost":0,"CPU_Cost":1.9245333333333,"Mem_Cost":0.0010105285432604,"App_Cost":32.075555555556},{"EndDate":"2020\/08\/07","GPU_Hours":4.8047222222222,"App":"Abaqus","JobName":"cubevnc","JobId":"7348","Queue":"local","Cluster":"aip","CPU_Hours":4.8047222222222,"User":"amd_app","Mem_GB_Hours":2.930571902593,"runTime":4.8047222222222,"JobDescription":"newabaun01","GPU_Cost":1.6816527777778,"CPU_Cost":1.6816527777778,"Mem_Cost":0.20514003318151,"App_Cost":16.816527777778},{"EndDate":"2020\/08\/07","GPU_Hours":0,"App":"Abaqus2017","JobName":"Job-143853","JobId":"7361","Queue":"q_x86_vio_share","Cluster":"aip","CPU_Hours":0.31111111111111,"User":"amd_app","Mem_GB_Hours":0.00021510654025608,"runTime":0.019444444444444,"JobDescription":"Job-143853-Model-1","GPU_Cost":0,"CPU_Cost":0.065333333333333,"Mem_Cost":1.5057457817925e-5,"App_Cost":1.0888888888889},{"EndDate":"2020\/08\/07","GPU_Hours":0,"App":"Abaqus2017","JobName":"Job-144131","JobId":"7362","Queue":"q_x86_vio_share","Cluster":"aip","CPU_Hours":0.0033333333333333,"User":"amd_app","Mem_GB_Hours":3.6671956380208e-5,"runTime":0.0033333333333333,"JobDescription":"Job-144131-Model-1","GPU_Cost":0,"CPU_Cost":0.0007,"Mem_Cost":2.5670369466146e-6,"App_Cost":0.011666666666667},{"EndDate":"2020\/08\/07","GPU_Hours":0,"App":"Abaqus2017","JobName":"Job-144542","JobId":"7363","Queue":"q_x86_vio_share","Cluster":"aip","CPU_Hours":0.0044444444444444,"User":"amd_app","Mem_GB_Hours":4.8895941840278e-5,"runTime":0.0044444444444444,"JobDescription":"Job-144542-Model-1","GPU_Cost":0,"CPU_Cost":0.00093333333333333,"Mem_Cost":3.4227159288194e-6,"App_Cost":0.015555555555556},{"EndDate":"2020\/08\/07","GPU_Hours":0.205,"App":"Abaqus","JobName":"cubevnc","JobId":"7360","Queue":"local","Cluster":"aip","CPU_Hours":0.205,"User":"amd_app","Mem_GB_Hours":0.084487113952637,"runTime":0.205,"JobDescription":"abaqusumat","GPU_Cost":0.07175,"CPU_Cost":0.07175,"Mem_Cost":0.0059140979766846,"App_Cost":0.7175},{"EndDate":"2020\/08\/07","GPU_Hours":0,"App":"","JobName":"cubevnc","JobId":"7245","Queue":"local","Cluster":"aip","CPU_Hours":5.7902777777778,"User":"amd_app","Mem_GB_Hours":4.2186170683967,"runTime":5.7902777777778,"JobDescription":"","GPU_Cost":0,"CPU_Cost":2.0265972222222,"Mem_Cost":0.29530319478777,"App_Cost":0},{"EndDate":"2020\/08\/07","GPU_Hours":0,"App":"Abaqus2017","JobName":"Job-153042","JobId":"7365","Queue":"q_x86_expr","Cluster":"aip","CPU_Hours":0.0066666666666667,"User":"amd_app","Mem_GB_Hours":3.668467203776e-5,"runTime":0.0033333333333333,"JobDescription":"Job-153042-qiuxiao","GPU_Cost":0,"CPU_Cost":0.0023333333333333,"Mem_Cost":2.5679270426432e-6,"App_Cost":0.023333333333333},{"EndDate":"2020\/08\/07","GPU_Hours":0.72444444444444,"App":"Abaqus","JobName":"cubevnc","JobId":"7364","Queue":"local","Cluster":"aip","CPU_Hours":0.72444444444444,"User":"amd_app","Mem_GB_Hours":0.29849231296115,"runTime":0.72444444444444,"JobDescription":"VUMAT","GPU_Cost":0.25355555555556,"CPU_Cost":0.25355555555556,"Mem_Cost":0.020894461907281,"App_Cost":2.5355555555556},{"EndDate":"2020\/08\/07","GPU_Hours":6.1394444444444,"App":"Hypermesh","JobName":"cubevnc","JobId":"7347","Queue":"local","Cluster":"aip","CPU_Hours":6.1394444444444,"User":"amd_app","Mem_GB_Hours":0.78574509090847,"runTime":6.1394444444444,"JobDescription":"hm","GPU_Cost":2.1488055555556,"CPU_Cost":2.1488055555556,"Mem_Cost":0.055002156363593,"App_Cost":0},{"EndDate":"2020\/08\/07","GPU_Hours":0,"App":"Abaqus2017","JobName":"Job-153527","JobId":"7367","Queue":"q_x86_expr","Cluster":"aip","CPU_Hours":8.6066666666667,"User":"amd_app","Mem_GB_Hours":0.015589646233453,"runTime":0.71722222222222,"JobDescription":"Job-153527-e1","GPU_Cost":0,"CPU_Cost":3.0123333333333,"Mem_Cost":0.0010912752363417,"App_Cost":30.123333333333},{"EndDate":"2020\/08\/07","GPU_Hours":0,"App":"Abaqus2017","JobName":"Job-180359","JobId":"7368","Queue":"q_x86_vio_share","Cluster":"aip","CPU_Hours":0.47111111111111,"User":"amd_app","Mem_GB_Hours":0.00045293702019586,"runTime":0.014722222222222,"JobDescription":"Job-180359-e1","GPU_Cost":0,"CPU_Cost":0.098933333333333,"Mem_Cost":3.170559141371e-5,"App_Cost":1.6488888888889},{"EndDate":"2020\/08\/07","GPU_Hours":0,"App":"Abaqus2017","JobName":"Job-180602","JobId":"7369","Queue":"q_x86_vio_share","Cluster":"aip","CPU_Hours":6.2533333333333,"User":"amd_app","Mem_GB_Hours":0.0050452423095703,"runTime":0.39083333333333,"JobDescription":"Job-180602-e1","GPU_Cost":0,"CPU_Cost":1.3132,"Mem_Cost":0.00035316696166992,"App_Cost":21.886666666667},{"EndDate":"2020\/08\/07","GPU_Hours":0,"App":"Abaqus2017","JobName":"Job-182915","JobId":"7370","Queue":"q_x86_vio_share","Cluster":"aip","CPU_Hours":0.20444444444444,"User":"amd_app","Mem_GB_Hours":0.00020182185702854,"runTime":0.0063888888888889,"JobDescription":"Job-182915-e1","GPU_Cost":0,"CPU_Cost":0.042933333333333,"Mem_Cost":1.4127529991998e-5,"App_Cost":0.71555555555556},{"EndDate":"2020\/08\/07","GPU_Hours":3.0088888888889,"App":"Abaqus","JobName":"cubevnc","JobId":"7366","Queue":"local","Cluster":"aip","CPU_Hours":3.0088888888889,"User":"amd_app","Mem_GB_Hours":2.0676125250922,"runTime":3.0088888888889,"JobDescription":"ababack","GPU_Cost":1.0531111111111,"CPU_Cost":1.0531111111111,"Mem_Cost":0.14473287675646,"App_Cost":10.531111111111},{"EndDate":"2020\/08\/07","GPU_Hours":0.015,"App":"PointWise","JobName":"cubevnc","JobId":"7371","Queue":"local","Cluster":"aip","CPU_Hours":0.015,"User":"amd_app","Mem_GB_Hours":0.0040453147888184,"runTime":0.015,"JobDescription":"PW_test4","GPU_Cost":0.00525,"CPU_Cost":0.00525,"Mem_Cost":0.00028317203521729,"App_Cost":0.0525},{"EndDate":"2020\/08\/07","GPU_Hours":0.021944444444444,"App":"LSPrePost","JobName":"cubevnc","JobId":"7373","Queue":"local","Cluster":"aip","CPU_Hours":0.021944444444444,"User":"amd_app","Mem_GB_Hours":0.0045061853196886,"runTime":0.021944444444444,"JobDescription":"dyna02","GPU_Cost":0.0076805555555556,"CPU_Cost":0.0076805555555556,"Mem_Cost":0.0003154329723782,"App_Cost":0},{"EndDate":"2020\/08\/08","GPU_Hours":0,"App":"StarCCM","JobName":"cubevnc","JobId":"7372","Queue":"q_x86_expr_plus","Cluster":"aip","CPU_Hours":187.93305555556,"User":"amd_app","Mem_GB_Hours":13.79396616194,"runTime":14.456388888889,"JobDescription":"starccm_test6","GPU_Cost":0,"CPU_Cost":65.776569444444,"Mem_Cost":0.96557763133579,"App_Cost":657.76569444444},{"EndDate":"2020\/08\/08","GPU_Hours":0,"App":"FluentBatch","JobName":"","JobId":"7388","Queue":"q_x86_vio_share_plus","Cluster":"aip","CPU_Hours":0.013333333333333,"User":"amd_app","Mem_GB_Hours":2.790027194553e-6,"runTime":0.00027777777777778,"JobDescription":"Fluentbatchtest","GPU_Cost":0,"CPU_Cost":0.0028,"Mem_Cost":1.9530190361871e-7,"App_Cost":0},{"EndDate":"2020\/08\/08","GPU_Hours":0,"App":"FluentBatch","JobName":"","JobId":"7391","Queue":"q_x86_vio_share","Cluster":"aip","CPU_Hours":0.066666666666667,"User":"amd_app","Mem_GB_Hours":1.4045503404405e-5,"runTime":0.0013888888888889,"JobDescription":"Fluentbatchtest","GPU_Cost":0,"CPU_Cost":0.014,"Mem_Cost":9.8318523830838e-7,"App_Cost":0},{"EndDate":"2020\/08\/08","GPU_Hours":0,"App":"FluentBatch","JobName":"","JobId":"7393","Queue":"q_x86_vio_share","Cluster":"aip","CPU_Hours":0.0066666666666667,"User":"amd_app","Mem_GB_Hours":2.8091006808811e-6,"runTime":0.00027777777777778,"JobDescription":"Fluentbatchtest","GPU_Cost":0,"CPU_Cost":0.0014,"Mem_Cost":1.9663704766168e-7,"App_Cost":0},{"EndDate":"2020\/08\/08","GPU_Hours":0,"App":"FluentBatch","JobName":"","JobId":"7395","Queue":"q_x86_vio_share","Cluster":"aip","CPU_Hours":0.0066666666666667,"User":"amd_app","Mem_GB_Hours":2.8101603190104e-6,"runTime":0.00027777777777778,"JobDescription":"Fluentbatchtest","GPU_Cost":0,"CPU_Cost":0.0014,"Mem_Cost":1.9671122233073e-7,"App_Cost":0},{"EndDate":"2020\/08\/08","GPU_Hours":0.14694444444444,"App":"ParaView","JobName":"cubevnc","JobId":"7397","Queue":"local","Cluster":"aip","CPU_Hours":0.14694444444444,"User":"amd_app","Mem_GB_Hours":0.048658418655396,"runTime":0.14694444444444,"JobDescription":"pvtest01","GPU_Cost":0.051430555555556,"CPU_Cost":0.051430555555556,"Mem_Cost":0.0034060893058777,"App_Cost":0.051430555555556},{"EndDate":"2020\/08\/08","GPU_Hours":0.024722222222222,"App":"ParaView","JobName":"cubevnc","JobId":"7398","Queue":"local","Cluster":"aip","CPU_Hours":0.024722222222222,"User":"amd_app","Mem_GB_Hours":0.0074589920043945,"runTime":0.024722222222222,"JobDescription":"pvtest01","GPU_Cost":0.0086527777777778,"CPU_Cost":0.0086527777777778,"Mem_Cost":0.00052212944030762,"App_Cost":0.0086527777777778},{"EndDate":"2020\/08\/08","GPU_Hours":0.0077777777777778,"App":"ParaView","JobName":"cubevnc","JobId":"7399","Queue":"local","Cluster":"aip","CPU_Hours":0.0077777777777778,"User":"amd_app","Mem_GB_Hours":0.0023454327053494,"runTime":0.0077777777777778,"JobDescription":"pvtest01","GPU_Cost":0.0027222222222222,"CPU_Cost":0.0027222222222222,"Mem_Cost":0.00016418028937446,"App_Cost":0.0027222222222222},{"EndDate":"2020\/08\/08","GPU_Hours":0.016111111111111,"App":"ParaView","JobName":"cubevnc","JobId":"7400","Queue":"local","Cluster":"aip","CPU_Hours":0.016111111111111,"User":"amd_app","Mem_GB_Hours":0.0048958863152398,"runTime":0.016111111111111,"JobDescription":"pvtest01","GPU_Cost":0.0056388888888889,"CPU_Cost":0.0056388888888889,"Mem_Cost":0.00034271204206679,"App_Cost":0.0056388888888889},{"EndDate":"2020\/08\/08","GPU_Hours":0,"App":"FluentBatch","JobName":"","JobId":"7404","Queue":"q_x86_vio_share","Cluster":"aip","CPU_Hours":0.0066666666666667,"User":"amd_app","Mem_GB_Hours":2.852545844184e-6,"runTime":0.00027777777777778,"JobDescription":"Fluentbatchtest","GPU_Cost":0,"CPU_Cost":0.0014,"Mem_Cost":1.9967820909288e-7,"App_Cost":0},{"EndDate":"2020\/08\/08","GPU_Hours":0,"App":"FluentBatch","JobName":"","JobId":"7405","Queue":"q_x86_vio_share","Cluster":"aip","CPU_Hours":0.0033333333333333,"User":"amd_app","Mem_GB_Hours":2.852545844184e-6,"runTime":0.00027777777777778,"JobDescription":"Fluentbatchtest","GPU_Cost":0,"CPU_Cost":0.0007,"Mem_Cost":1.9967820909288e-7,"App_Cost":0},{"EndDate":"2020\/08\/08","GPU_Hours":0,"App":"FluentBatch","JobName":"","JobId":"7406","Queue":"q_x86_vio_share","Cluster":"aip","CPU_Hours":0.0033333333333333,"User":"amd_app","Mem_GB_Hours":2.852545844184e-6,"runTime":0.00027777777777778,"JobDescription":"Fluentbatchtest","GPU_Cost":0,"CPU_Cost":0.0007,"Mem_Cost":1.9967820909288e-7,"App_Cost":0},{"EndDate":"2020\/08\/08","GPU_Hours":0,"App":"FluentBatch","JobName":"","JobId":"7408","Queue":"q_x86_expr","Cluster":"aip","CPU_Hours":1.4566666666667,"User":"amd_app","Mem_GB_Hours":0.0012465625339084,"runTime":0.12138888888889,"JobDescription":"Fluentbatchtest","GPU_Cost":0,"CPU_Cost":0.50983333333333,"Mem_Cost":8.7259377373589e-5,"App_Cost":0},{"EndDate":"2020\/08\/08","GPU_Hours":0,"App":"FluentBatch","JobName":"","JobId":"7409","Queue":"q_x86_vio_share","Cluster":"aip","CPU_Hours":1.4533333333333,"User":"amd_app","Mem_GB_Hours":0.00062185499403212,"runTime":0.060555555555556,"JobDescription":"Fluentbatchtest","GPU_Cost":0,"CPU_Cost":0.3052,"Mem_Cost":4.3529849582248e-5,"App_Cost":0},{"EndDate":"2020\/08\/08","GPU_Hours":0,"App":"FluentBatch","JobName":"","JobId":"7410","Queue":"q_x86_vio_share","Cluster":"aip","CPU_Hours":1.6133333333333,"User":"amd_app","Mem_GB_Hours":0.00069031609429253,"runTime":0.067222222222222,"JobDescription":"Fluentbatchtest","GPU_Cost":0,"CPU_Cost":0.3388,"Mem_Cost":4.8322126600477e-5,"App_Cost":0},{"EndDate":"2020\/08\/08","GPU_Hours":0,"App":"FluentBatch","JobName":"","JobId":"7411","Queue":"q_x86_share","Cluster":"aip","CPU_Hours":4.1733333333333,"User":"amd_app","Mem_GB_Hours":0.0036105240715875,"runTime":0.17388888888889,"JobDescription":"Fluentbatchtest","GPU_Cost":0,"CPU_Cost":1.4606666666667,"Mem_Cost":0.00025273668501112,"App_Cost":0},{"EndDate":"2020\/08\/08","GPU_Hours":0,"App":"FluentBatch","JobName":"","JobId":"7412","Queue":"q_x86_share","Cluster":"aip","CPU_Hours":2.3866666666667,"User":"amd_app","Mem_GB_Hours":0.0010208320617676,"runTime":0.099444444444444,"JobDescription":"Fluentbatchtest","GPU_Cost":0,"CPU_Cost":0.83533333333333,"Mem_Cost":7.145824432373e-5,"App_Cost":0},{"EndDate":"2020\/08\/08","GPU_Hours":0,"App":"FluentBatch","JobName":"","JobId":"7414","Queue":"q_x86_share","Cluster":"aip","CPU_Hours":2.6866666666667,"User":"amd_app","Mem_GB_Hours":0.0023252010345459,"runTime":0.11194444444444,"JobDescription":"Fluentbatchtest","GPU_Cost":0,"CPU_Cost":0.94033333333333,"Mem_Cost":0.00016276407241821,"App_Cost":0},{"EndDate":"2020\/08\/08","GPU_Hours":0,"App":"FluentBatch","JobName":"","JobId":"7415","Queue":"q_x86_share","Cluster":"aip","CPU_Hours":7.0966666666667,"User":"amd_app","Mem_GB_Hours":0.0122792424096,"runTime":0.59138888888889,"JobDescription":"Fluentbatchtest","GPU_Cost":0,"CPU_Cost":2.4838333333333,"Mem_Cost":0.00085954696867201,"App_Cost":0},{"EndDate":"2020\/08\/08","GPU_Hours":0,"App":"FluentBatch","JobName":"","JobId":"7417","Queue":"q_x86_share","Cluster":"aip","CPU_Hours":0.94666666666667,"User":"amd_app","Mem_GB_Hours":0.0016383022732205,"runTime":0.078888888888889,"JobDescription":"Fluentbatchtest","GPU_Cost":0,"CPU_Cost":0.33133333333333,"Mem_Cost":0.00011468115912543,"App_Cost":0},{"EndDate":"2020\/08\/08","GPU_Hours":0,"App":"FluentBatch","JobName":"","JobId":"7418","Queue":"q_x86_share","Cluster":"aip","CPU_Hours":1.11,"User":"amd_app","Mem_GB_Hours":0.0019202613830566,"runTime":0.0925,"JobDescription":"Fluentbatchtest","GPU_Cost":0,"CPU_Cost":0.3885,"Mem_Cost":0.00013441829681396,"App_Cost":0},{"EndDate":"2020\/08\/08","GPU_Hours":0,"App":"StarCCMBatch","JobName":"cubevnc","JobId":"7419","Queue":"q_x86_share_plus","Cluster":"aip","CPU_Hours":0.0019444444444444,"User":"amd_app","Mem_GB_Hours":1.9678539699978e-5,"runTime":0.0019444444444444,"JobDescription":"StarccmBatch","GPU_Cost":0,"CPU_Cost":0.00068055555555556,"Mem_Cost":1.3774977789985e-6,"App_Cost":0},{"EndDate":"2020\/08\/08","GPU_Hours":0,"App":"StarCCMBatch","JobName":"cubevnc","JobId":"7420","Queue":"q_x86_vio_share_plus","Cluster":"aip","CPU_Hours":0.0016666666666667,"User":"amd_app","Mem_GB_Hours":1.7649332682292e-5,"runTime":0.0016666666666667,"JobDescription":"StarccmBatch","GPU_Cost":0,"CPU_Cost":0.00035,"Mem_Cost":1.2354532877604e-6,"App_Cost":0},{"EndDate":"2020\/08\/08","GPU_Hours":0,"App":"StarCCMBatch","JobName":"","JobId":"7422","Queue":"q_x86_share","Cluster":"aip","CPU_Hours":0.0069444444444444,"User":"amd_app","Mem_GB_Hours":0.00014403131273058,"runTime":0.0069444444444444,"JobDescription":"StarccmBatch","GPU_Cost":0,"CPU_Cost":0.0024305555555556,"Mem_Cost":1.008219189114e-5,"App_Cost":0},{"EndDate":"2020\/08\/08","GPU_Hours":0,"App":"StarCCMBatch","JobName":"","JobId":"7423","Queue":"q_x86_share","Cluster":"aip","CPU_Hours":0.019166666666667,"User":"amd_app","Mem_GB_Hours":0.00039759953816732,"runTime":0.019166666666667,"JobDescription":"StarccmBatch","GPU_Cost":0,"CPU_Cost":0.0067083333333333,"Mem_Cost":2.7831967671712e-5,"App_Cost":0},{"EndDate":"2020\/08\/08","GPU_Hours":0,"App":"StarCCMBatch","JobName":"","JobId":"7424","Queue":"q_x86_share","Cluster":"aip","CPU_Hours":0.086388888888889,"User":"amd_app","Mem_GB_Hours":0.0017924086252848,"runTime":0.086388888888889,"JobDescription":"StarccmBatch","GPU_Cost":0,"CPU_Cost":0.030236111111111,"Mem_Cost":0.00012546860376994,"App_Cost":0},{"EndDate":"2020\/08\/08","GPU_Hours":0,"App":"StarCCMBatch","JobName":"","JobId":"7425","Queue":"q_x86_share","Cluster":"aip","CPU_Hours":0.060277777777778,"User":"amd_app","Mem_GB_Hours":0.0012499618530273,"runTime":0.060277777777778,"JobDescription":"StarccmBatch","GPU_Cost":0,"CPU_Cost":0.021097222222222,"Mem_Cost":8.7497329711914e-5,"App_Cost":0},{"EndDate":"2020\/08\/08","GPU_Hours":0,"App":"StarCCMBatch","JobName":"","JobId":"7426","Queue":"q_x86_vio_share","Cluster":"aip","CPU_Hours":0.035833333333333,"User":"amd_app","Mem_GB_Hours":0.00036989212036133,"runTime":0.035833333333333,"JobDescription":"StarccmBatch","GPU_Cost":0,"CPU_Cost":0.007525,"Mem_Cost":2.5892448425293e-5,"App_Cost":0},{"EndDate":"2020\/08\/08","GPU_Hours":0,"App":"StarCCMBatch","JobName":"","JobId":"7428","Queue":"q_x86_vio_share","Cluster":"aip","CPU_Hours":0.030555555555556,"User":"amd_app","Mem_GB_Hours":0.00031541188557943,"runTime":0.030555555555556,"JobDescription":"StarccmBatch","GPU_Cost":0,"CPU_Cost":0.0064166666666667,"Mem_Cost":2.207883199056e-5,"App_Cost":0},{"EndDate":"2020\/08\/08","GPU_Hours":0,"App":"StarCCMBatch","JobName":"","JobId":"7429","Queue":"q_x86_vio_share","Cluster":"aip","CPU_Hours":0.044166666666667,"User":"amd_app","Mem_GB_Hours":0.00045591354370117,"runTime":0.044166666666667,"JobDescription":"StarccmBatch","GPU_Cost":0,"CPU_Cost":0.009275,"Mem_Cost":3.1913948059082e-5,"App_Cost":0},{"EndDate":"2020\/08\/08","GPU_Hours":0,"App":"FluentBatch","JobName":"","JobId":"7430","Queue":"q_x86_vio_share","Cluster":"aip","CPU_Hours":2.11,"User":"amd_app","Mem_GB_Hours":0.0018150520324707,"runTime":0.17583333333333,"JobDescription":"Fluentbatchtest","GPU_Cost":0,"CPU_Cost":0.4431,"Mem_Cost":0.00012705364227295,"App_Cost":0},{"EndDate":"2020\/08\/08","GPU_Hours":0,"App":"FluentBatch","JobName":"","JobId":"7431","Queue":"q_x86_vio_share","Cluster":"aip","CPU_Hours":0.91611111111111,"User":"amd_app","Mem_GB_Hours":0.0094566218058268,"runTime":0.91611111111111,"JobDescription":"Fluentbatchtest","GPU_Cost":0,"CPU_Cost":0.19238333333333,"Mem_Cost":0.00066196352640788,"App_Cost":0},{"EndDate":"2020\/08\/08","GPU_Hours":0,"App":"FluentBatch","JobName":"","JobId":"7433","Queue":"q_x86_share","Cluster":"aip","CPU_Hours":0.2275,"User":"amd_app","Mem_GB_Hours":0.0047184658050537,"runTime":0.2275,"JobDescription":"Fluentbatchtest","GPU_Cost":0,"CPU_Cost":0.079625,"Mem_Cost":0.00033029260635376,"App_Cost":0},{"EndDate":"2020\/08\/08","GPU_Hours":0,"App":"FluentBatch","JobName":"","JobId":"7434","Queue":"q_x86_share","Cluster":"aip","CPU_Hours":0.040833333333333,"User":"amd_app","Mem_GB_Hours":0.00084768295288086,"runTime":0.040833333333333,"JobDescription":"Fluentbatchtest","GPU_Cost":0,"CPU_Cost":0.014291666666667,"Mem_Cost":5.933780670166e-5,"App_Cost":0},{"EndDate":"2020\/08\/10","GPU_Hours":59.178888888889,"App":"Abaqus","JobName":"cubevnc","JobId":"7374","Queue":"local","Cluster":"aip","CPU_Hours":59.178888888889,"User":"amd_app","Mem_GB_Hours":24.062869817946,"runTime":59.178888888889,"JobDescription":"newabaun01","GPU_Cost":20.712611111111,"CPU_Cost":20.712611111111,"Mem_Cost":1.6844008872562,"App_Cost":207.12611111111},{"EndDate":"2020\/08\/10","GPU_Hours":0.30888888888889,"App":"Hypermesh","JobName":"cubevnc","JobId":"7489","Queue":"local","Cluster":"aip","CPU_Hours":0.30888888888889,"User":"amd_app","Mem_GB_Hours":0.039242689344618,"runTime":0.30888888888889,"JobDescription":"hpmesh02","GPU_Cost":0.10811111111111,"CPU_Cost":0.10811111111111,"Mem_Cost":0.0027469882541233,"App_Cost":0},{"EndDate":"2020\/08\/10","GPU_Hours":0.90027777777778,"App":"Hypermesh","JobName":"cubevnc","JobId":"7490","Queue":"local","Cluster":"aip","CPU_Hours":0.90027777777778,"User":"amd_app","Mem_GB_Hours":1.4870085705651,"runTime":0.90027777777778,"JobDescription":"hmgnome01","GPU_Cost":0.31509722222222,"CPU_Cost":0.31509722222222,"Mem_Cost":0.10409059993956,"App_Cost":0},{"EndDate":"2020\/08\/10","GPU_Hours":0,"App":"FluentBatch","JobName":"","JobId":"7491","Queue":"q_x86_share","Cluster":"aip","CPU_Hours":0.91166666666667,"User":"amd_app","Mem_GB_Hours":0.018911908467611,"runTime":0.91166666666667,"JobDescription":"Fluentbatchtest2","GPU_Cost":0,"CPU_Cost":0.31908333333333,"Mem_Cost":0.0013238335927327,"App_Cost":0},{"EndDate":"2020\/08\/10","GPU_Hours":0.10305555555556,"App":"ICEPAK","JobName":"cubevnc","JobId":"7496","Queue":"local","Cluster":"aip","CPU_Hours":0.10305555555556,"User":"amd_app","Mem_GB_Hours":0.0019341786702474,"runTime":0.10305555555556,"JobDescription":"Icepak_test","GPU_Cost":0.036069444444444,"CPU_Cost":0.036069444444444,"Mem_Cost":0.00013539250691732,"App_Cost":0},{"EndDate":"2020\/08\/10","GPU_Hours":0,"App":"Abaqus614\u63d0\u4ea4inp\u591a\u8282\u70b9","JobName":"","JobId":"7501","Queue":"q_x86_vio_share","Cluster":"aip","CPU_Hours":0.24,"User":"amd_app","Mem_GB_Hours":7.8535079956055e-5,"runTime":0.0075,"JobDescription":"abaqus01614","GPU_Cost":0,"CPU_Cost":0.0504,"Mem_Cost":5.4974555969238e-6,"App_Cost":0},{"EndDate":"2020\/08\/10","GPU_Hours":0,"App":"Abaqus614\u63d0\u4ea4inp\u591a\u8282\u70b9","JobName":"","JobId":"7502","Queue":"q_x86_share","Cluster":"aip","CPU_Hours":0.35555555555556,"User":"amd_app","Mem_GB_Hours":0.00023269653320312,"runTime":0.011111111111111,"JobDescription":"abaqus01614","GPU_Cost":0,"CPU_Cost":0.12444444444444,"Mem_Cost":1.6288757324219e-5,"App_Cost":0},{"EndDate":"2020\/08\/10","GPU_Hours":0,"App":"Abaqus614\u63d0\u4ea4inp\u591a\u8282\u70b9","JobName":"","JobId":"7503","Queue":"q_x86_share","Cluster":"aip","CPU_Hours":0.72888888888889,"User":"amd_app","Mem_GB_Hours":0.00047711478339301,"runTime":0.022777777777778,"JobDescription":"abaqus01614","GPU_Cost":0,"CPU_Cost":0.25511111111111,"Mem_Cost":3.3398034837511e-5,"App_Cost":0},{"EndDate":"2020\/08\/10","GPU_Hours":0,"App":"Abaqus614\u63d0\u4ea4inp\u591a\u8282\u70b9","JobName":"","JobId":"7505","Queue":"q_x86_share","Cluster":"aip","CPU_Hours":0.53333333333333,"User":"amd_app","Mem_GB_Hours":0.00034923553466797,"runTime":0.016666666666667,"JobDescription":"abaqus01614","GPU_Cost":0,"CPU_Cost":0.18666666666667,"Mem_Cost":2.4446487426758e-5,"App_Cost":0},{"EndDate":"2020\/08\/10","GPU_Hours":0,"App":"Abaqus614\u63d0\u4ea4inp\u591a\u8282\u70b9","JobName":"","JobId":"7506","Queue":"q_x86_share","Cluster":"aip","CPU_Hours":0.53333333333333,"User":"amd_app","Mem_GB_Hours":0.00017452239990234,"runTime":0.016666666666667,"JobDescription":"abaqus01614","GPU_Cost":0,"CPU_Cost":0.18666666666667,"Mem_Cost":1.2216567993164e-5,"App_Cost":0},{"EndDate":"2020\/08\/10","GPU_Hours":0,"App":"Abaqus2017\u63d0\u4ea4inp","JobName":"","JobId":"7500","Queue":"q_x86_vio_share","Cluster":"aip","CPU_Hours":4.5111111111111,"User":"amd_app","Mem_GB_Hours":0.0029523372650146,"runTime":0.28194444444444,"JobDescription":"abaqus012017","GPU_Cost":0,"CPU_Cost":0.94733333333333,"Mem_Cost":0.00020666360855103,"App_Cost":0},{"EndDate":"2020\/08\/10","GPU_Hours":0,"App":"Abaqus614\u63d0\u4ea4inp\u591a\u8282\u70b9","JobName":"","JobId":"7509","Queue":"q_x86_vio_share","Cluster":"aip","CPU_Hours":0.54222222222222,"User":"amd_app","Mem_GB_Hours":0.00017743110656738,"runTime":0.016944444444444,"JobDescription":"abaqus01614","GPU_Cost":0,"CPU_Cost":0.11386666666667,"Mem_Cost":1.2420177459717e-5,"App_Cost":0},{"EndDate":"2020\/08\/10","GPU_Hours":1.6788888888889,"App":"Hypermesh","JobName":"cubevnc","JobId":"7493","Queue":"local","Cluster":"aip","CPU_Hours":1.6788888888889,"User":"amd_app","Mem_GB_Hours":2.1206936645508,"runTime":1.6788888888889,"JobDescription":"hm04","GPU_Cost":0.58761111111111,"CPU_Cost":0.58761111111111,"Mem_Cost":0.14844855651855,"App_Cost":0},{"EndDate":"2020\/08\/10","GPU_Hours":0,"App":"Abaqus614\u63d0\u4ea4inp\u591a\u8282\u70b9","JobName":"","JobId":"7510","Queue":"q_x86_vio_share","Cluster":"aip","CPU_Hours":0.15111111111111,"User":"amd_app","Mem_GB_Hours":4.9448013305664e-5,"runTime":0.0047222222222222,"JobDescription":"abaqus01614","GPU_Cost":0,"CPU_Cost":0.031733333333333,"Mem_Cost":3.4613609313965e-6,"App_Cost":0},{"EndDate":"2020\/08\/10","GPU_Hours":0,"App":"Abaqus2017\u63d0\u4ea4inp","JobName":"","JobId":"7512","Queue":"q_x86_expr","Cluster":"aip","CPU_Hours":0.15555555555556,"User":"amd_app","Mem_GB_Hours":0.00010180473327637,"runTime":0.0097222222222222,"JobDescription":"abaqus0120177","GPU_Cost":0,"CPU_Cost":0.054444444444444,"Mem_Cost":7.1263313293457e-6,"App_Cost":0},{"EndDate":"2020\/08\/10","GPU_Hours":0,"App":"Abaqus614\u63d0\u4ea4inp\u591a\u8282\u70b9","JobName":"","JobId":"7513","Queue":"q_x86_share","Cluster":"aip","CPU_Hours":0.33333333333333,"User":"amd_app","Mem_GB_Hours":7.2717666625977e-5,"runTime":0.0069444444444444,"JobDescription":"aba614last","GPU_Cost":0,"CPU_Cost":0.11666666666667,"Mem_Cost":5.0902366638184e-6,"App_Cost":0},{"EndDate":"2020\/08\/10","GPU_Hours":0,"App":"Abaqus614\u63d0\u4ea4inp\u591a\u8282\u70b9","JobName":"","JobId":"7514","Queue":"q_x86_share","Cluster":"aip","CPU_Hours":0.53333333333333,"User":"amd_app","Mem_GB_Hours":0.00011634826660156,"runTime":0.011111111111111,"JobDescription":"aba614last","GPU_Cost":0,"CPU_Cost":0.18666666666667,"Mem_Cost":8.1443786621094e-6,"App_Cost":0},{"EndDate":"2020\/08\/10","GPU_Hours":0,"App":"Abaqus\u63d0\u4ea4inp","JobName":"","JobId":"7517","Queue":"q_x86_expr","Cluster":"aip","CPU_Hours":0.90666666666667,"User":"amd_app","Mem_GB_Hours":0.00059337615966797,"runTime":0.056666666666667,"JobDescription":"abaqusbatch01","GPU_Cost":0,"CPU_Cost":0.31733333333333,"Mem_Cost":4.1536331176758e-5,"App_Cost":0},{"EndDate":"2020\/08\/10","GPU_Hours":0,"App":"Abaqus614\u63d0\u4ea4inp\u591a\u8282\u70b9","JobName":"","JobId":"7524","Queue":"q_x86_vio_share","Cluster":"aip","CPU_Hours":0.25333333333333,"User":"amd_app","Mem_GB_Hours":5.5265426635742e-5,"runTime":0.0052777777777778,"JobDescription":"aba2016last","GPU_Cost":0,"CPU_Cost":0.0532,"Mem_Cost":3.868579864502e-6,"App_Cost":0},{"EndDate":"2020\/08\/10","GPU_Hours":0,"App":"","JobName":"","JobId":"7525","Queue":"local","Cluster":"aip","CPU_Hours":0.00027777777777778,"User":"amd_app","Mem_GB_Hours":2.9044681125217e-6,"runTime":0.00027777777777778,"JobDescription":"","GPU_Cost":0,"CPU_Cost":9.7222222222222e-5,"Mem_Cost":2.0331276787652e-7,"App_Cost":0},{"EndDate":"2020\/08\/10","GPU_Hours":0,"App":"","JobName":"","JobId":"7527","Queue":"local","Cluster":"aip","CPU_Hours":0.0016666666666667,"User":"amd_app","Mem_GB_Hours":9.6766153971354e-6,"runTime":0.0016666666666667,"JobDescription":"","GPU_Cost":0,"CPU_Cost":0.00058333333333333,"Mem_Cost":6.7736307779948e-7,"App_Cost":0},{"EndDate":"2020\/08\/10","GPU_Hours":0,"App":"","JobName":"","JobId":"7528","Queue":"local","Cluster":"aip","CPU_Hours":0.0038888888888889,"User":"amd_app","Mem_GB_Hours":2.2549099392361e-5,"runTime":0.0038888888888889,"JobDescription":"","GPU_Cost":0,"CPU_Cost":0.0013611111111111,"Mem_Cost":1.5784369574653e-6,"App_Cost":0},{"EndDate":"2020\/08\/10","GPU_Hours":0,"App":"","JobName":"","JobId":"7529","Queue":"local","Cluster":"aip","CPU_Hours":0.018611111111111,"User":"amd_app","Mem_GB_Hours":0.00010990142822266,"runTime":0.018611111111111,"JobDescription":"","GPU_Cost":0,"CPU_Cost":0.0065138888888889,"Mem_Cost":7.6930999755859e-6,"App_Cost":0},{"EndDate":"2020\/08\/10","GPU_Hours":0,"App":"Abaqus614\u63d0\u4ea4inp\u591a\u8282\u70b9","JobName":"","JobId":"7530","Queue":"q_x86_vio_share","Cluster":"aip","CPU_Hours":0.28,"User":"amd_app","Mem_GB_Hours":6.1060587565104e-5,"runTime":0.0058333333333333,"JobDescription":"aba2016last","GPU_Cost":0,"CPU_Cost":0.0588,"Mem_Cost":4.2742411295573e-6,"App_Cost":0},{"EndDate":"2020\/08\/10","GPU_Hours":0,"App":"Abaqus614\u63d0\u4ea4inp\u591a\u8282\u70b9","JobName":"","JobId":"7532","Queue":"q_x86_share","Cluster":"aip","CPU_Hours":1.2266666666667,"User":"amd_app","Mem_GB_Hours":0.00053490956624349,"runTime":0.025555555555556,"JobDescription":"aba2016last","GPU_Cost":0,"CPU_Cost":0.42933333333333,"Mem_Cost":3.7443669637044e-5,"App_Cost":0},{"EndDate":"2020\/08\/10","GPU_Hours":0,"App":"Abaqus614\u63d0\u4ea4inp\u591a\u8282\u70b9","JobName":"","JobId":"7533","Queue":"q_x86_share","Cluster":"aip","CPU_Hours":15.88,"User":"amd_app","Mem_GB_Hours":0.0069247531890869,"runTime":0.33083333333333,"JobDescription":"aba2016last","GPU_Cost":0,"CPU_Cost":5.558,"Mem_Cost":0.00048473272323608,"App_Cost":0},{"EndDate":"2020\/08\/10","GPU_Hours":0,"App":"Abaqus2017","JobName":"Job-135006","JobId":"7538","Queue":"q_x86_vio_share","Cluster":"aip","CPU_Hours":1.2177777777778,"User":"amd_app","Mem_GB_Hours":0.00039849281311035,"runTime":0.038055555555556,"JobDescription":"Job-135006-Squeeze","GPU_Cost":0,"CPU_Cost":0.25573333333333,"Mem_Cost":2.7894496917725e-5,"App_Cost":4.2622222222222},{"EndDate":"2020\/08\/10","GPU_Hours":0,"App":"Abaqus614\u63d0\u4ea4inp\u591a\u8282\u70b9","JobName":"","JobId":"7535","Queue":"q_x86_share","Cluster":"aip","CPU_Hours":16.306666666667,"User":"amd_app","Mem_GB_Hours":0.0071121046278212,"runTime":0.33972222222222,"JobDescription":"aba2016last","GPU_Cost":0,"CPU_Cost":5.7073333333333,"Mem_Cost":0.00049784732394748,"App_Cost":0},{"EndDate":"2020\/08\/10","GPU_Hours":0,"App":"Abaqus2017","JobName":"Job-135706","JobId":"7540","Queue":"q_x86_vio_share","Cluster":"aip","CPU_Hours":1.6533333333333,"User":"amd_app","Mem_GB_Hours":0.00054101943969727,"runTime":0.051666666666667,"JobDescription":"Job-135706-Squeeze","GPU_Cost":0,"CPU_Cost":0.3472,"Mem_Cost":3.7871360778809e-5,"App_Cost":5.7866666666667},{"EndDate":"2020\/08\/10","GPU_Hours":3.8113888888889,"App":"ICEPAK","JobName":"cubevnc","JobId":"7497","Queue":"local","Cluster":"aip","CPU_Hours":3.8113888888889,"User":"amd_app","Mem_GB_Hours":0.071547869576348,"runTime":3.8113888888889,"JobDescription":"IcePak_test","GPU_Cost":1.3339861111111,"CPU_Cost":1.3339861111111,"Mem_Cost":0.0050083508703444,"App_Cost":0},{"EndDate":"2020\/08\/10","GPU_Hours":0,"App":"Ansys-APDL","JobName":"cubevnc","JobId":"7545","Queue":"local","Cluster":"aip","CPU_Hours":0.0025,"User":"amd_app","Mem_GB_Hours":0.00018935203552246,"runTime":0.0025,"JobDescription":"apdl001","GPU_Cost":0,"CPU_Cost":0.000875,"Mem_Cost":1.3254642486572e-5,"App_Cost":0},{"EndDate":"2020\/08\/10","GPU_Hours":0,"App":"Ansys-APDL","JobName":"cubevnc","JobId":"7546","Queue":"local","Cluster":"aip","CPU_Hours":0.0027777777777778,"User":"amd_app","Mem_GB_Hours":0.00012422137790256,"runTime":0.0027777777777778,"JobDescription":"apdl01","GPU_Cost":0,"CPU_Cost":0.00097222222222222,"Mem_Cost":8.6954964531793e-6,"App_Cost":0},{"EndDate":"2020\/08\/10","GPU_Hours":0,"App":"Ansys-APDL","JobName":"cubevnc","JobId":"7547","Queue":"local","Cluster":"aip","CPU_Hours":0.0030555555555556,"User":"amd_app","Mem_GB_Hours":0.0002020804087321,"runTime":0.0030555555555556,"JobDescription":"fg01","GPU_Cost":0,"CPU_Cost":0.0010694444444444,"Mem_Cost":1.4145628611247e-5,"App_Cost":0},{"EndDate":"2020\/08\/10","GPU_Hours":0,"App":"Ansys-APDL","JobName":"cubevnc","JobId":"7549","Queue":"local","Cluster":"aip","CPU_Hours":0.0025,"User":"amd_app","Mem_GB_Hours":0.00015006065368652,"runTime":0.0025,"JobDescription":"apdl01","GPU_Cost":0,"CPU_Cost":0.000875,"Mem_Cost":1.0504245758057e-5,"App_Cost":0},{"EndDate":"2020\/08\/10","GPU_Hours":0,"App":"Abaqus2017","JobName":"Job-164504","JobId":"7548","Queue":"q_x86_vio_share","Cluster":"aip","CPU_Hours":9.5644444444444,"User":"amd_app","Mem_GB_Hours":0.003129768371582,"runTime":0.29888888888889,"JobDescription":"Job-164504-e1","GPU_Cost":0,"CPU_Cost":2.0085333333333,"Mem_Cost":0.00021908378601074,"App_Cost":33.475555555556},{"EndDate":"2020\/08\/11","GPU_Hours":19.103055555556,"App":"Abaqus","JobName":"cubevnc","JobId":"7536","Queue":"local","Cluster":"aip","CPU_Hours":19.103055555556,"User":"amd_app","Mem_GB_Hours":13.580495580037,"runTime":19.103055555556,"JobDescription":"abaqus2016GUI","GPU_Cost":6.6860694444444,"CPU_Cost":6.6860694444444,"Mem_Cost":0.95063469060262,"App_Cost":66.860694444444},{"EndDate":"2020\/08\/11","GPU_Hours":0.20666666666667,"App":"Abaqus","JobName":"cubevnc","JobId":"7578","Queue":"local","Cluster":"aip","CPU_Hours":0.20666666666667,"User":"amd_app","Mem_GB_Hours":0.084791641235352,"runTime":0.20666666666667,"JobDescription":"abaqus_test","GPU_Cost":0.072333333333333,"CPU_Cost":0.072333333333333,"Mem_Cost":0.0059354148864746,"App_Cost":0.72333333333333},{"EndDate":"2020\/08\/11","GPU_Hours":15.713611111111,"App":"Hypermesh","JobName":"cubevnc","JobId":"7551","Queue":"local","Cluster":"aip","CPU_Hours":15.713611111111,"User":"amd_app","Mem_GB_Hours":15.133785670598,"runTime":15.713611111111,"JobDescription":"HM_TEST","GPU_Cost":5.4997638888889,"CPU_Cost":5.4997638888889,"Mem_Cost":1.0593649969419,"App_Cost":0},{"EndDate":"2020\/08\/11","GPU_Hours":18.715555555556,"App":"ICEPAK","JobName":"cubevnc","JobId":"7541","Queue":"local","Cluster":"aip","CPU_Hours":18.715555555556,"User":"amd_app","Mem_GB_Hours":14.332309960259,"runTime":18.715555555556,"JobDescription":"IcePak_test","GPU_Cost":6.5504444444444,"CPU_Cost":6.5504444444444,"Mem_Cost":1.0032616972182,"App_Cost":0},{"EndDate":"2020\/08\/11","GPU_Hours":0,"App":"Abaqus614\u63d0\u4ea4inp\u591a\u8282\u70b9","JobName":"","JobId":"7582","Queue":"q_x86_vio_share","Cluster":"aip","CPU_Hours":20,"User":"amd_app","Mem_GB_Hours":0.0043471654256185,"runTime":0.41666666666667,"JobDescription":"aba6140811","GPU_Cost":0,"CPU_Cost":4.2,"Mem_Cost":0.00030430157979329,"App_Cost":0},{"EndDate":"2020\/08\/11","GPU_Hours":18.372222222222,"App":"Hypermesh","JobName":"cubevnc","JobId":"7543","Queue":"local","Cluster":"aip","CPU_Hours":18.372222222222,"User":"amd_app","Mem_GB_Hours":27.965313826667,"runTime":18.372222222222,"JobDescription":"hm03","GPU_Cost":6.4302777777778,"CPU_Cost":6.4302777777778,"Mem_Cost":1.9575719678667,"App_Cost":0},{"EndDate":"2020\/08\/11","GPU_Hours":0.0625,"App":"PointWise","JobName":"cubevnc","JobId":"7583","Queue":"local","Cluster":"aip","CPU_Hours":0.0625,"User":"amd_app","Mem_GB_Hours":0.017535209655762,"runTime":0.0625,"JobDescription":"PW_test","GPU_Cost":0.021875,"CPU_Cost":0.021875,"Mem_Cost":0.0012274646759033,"App_Cost":0.21875},{"EndDate":"2020\/08\/11","GPU_Hours":0,"App":"StarCCM","JobName":"cubevnc","JobId":"7588","Queue":"q_x86_share_plus","Cluster":"aip","CPU_Hours":0.075833333333333,"User":"amd_app","Mem_GB_Hours":0.00051954905192057,"runTime":0.0058333333333333,"JobDescription":"starCCM_test","GPU_Cost":0,"CPU_Cost":0.026541666666667,"Mem_Cost":3.636843363444e-5,"App_Cost":0.26541666666667},{"EndDate":"2020\/08\/11","GPU_Hours":0,"App":"Fluent","JobName":"cubevnc","JobId":"7591","Queue":"q_x86_share","Cluster":"aip","CPU_Hours":0.03,"User":"amd_app","Mem_GB_Hours":0.0024468612670898,"runTime":0.03,"JobDescription":"Fluent_test","GPU_Cost":0,"CPU_Cost":0.0105,"Mem_Cost":0.00017128028869629,"App_Cost":0.105},{"EndDate":"2020\/08\/11","GPU_Hours":0,"App":"Fluent","JobName":"cubevnc","JobId":"7597","Queue":"q_x86_share","Cluster":"aip","CPU_Hours":0.0088888888888889,"User":"amd_app","Mem_GB_Hours":0.00063151041666667,"runTime":0.0088888888888889,"JobDescription":"Fluent_test","GPU_Cost":0,"CPU_Cost":0.0031111111111111,"Mem_Cost":4.4205729166667e-5,"App_Cost":0.031111111111111},{"EndDate":"2020\/08\/11","GPU_Hours":0,"App":"Fluent","JobName":"cubevnc","JobId":"7598","Queue":"q_x86_expr","Cluster":"aip","CPU_Hours":0.4775,"User":"amd_app","Mem_GB_Hours":0.040146255493164,"runTime":0.4775,"JobDescription":"Fluent_test","GPU_Cost":0,"CPU_Cost":0.167125,"Mem_Cost":0.0028102378845215,"App_Cost":1.67125},{"EndDate":"2020\/08\/11","GPU_Hours":0.0044444444444444,"App":"ICEPAK","JobName":"cubevnc","JobId":"7619","Queue":"local","Cluster":"aip","CPU_Hours":0.0044444444444444,"User":"amd_app","Mem_GB_Hours":0.00084040323893229,"runTime":0.0044444444444444,"JobDescription":"icepakdesktop","GPU_Cost":0.0015555555555556,"CPU_Cost":0.0015555555555556,"Mem_Cost":5.882822672526e-5,"App_Cost":0},{"EndDate":"2020\/08\/11","GPU_Hours":0,"App":"PointWise","JobName":"cubevnc","JobId":"7627","Queue":"local","Cluster":"aip","CPU_Hours":0.015277777777778,"User":"amd_app","Mem_GB_Hours":0.0040391604105632,"runTime":0.015277777777778,"JobDescription":"PW_test","GPU_Cost":0,"CPU_Cost":0.0053472222222222,"Mem_Cost":0.00028274122873942,"App_Cost":0.053472222222222},{"EndDate":"2020\/08\/11","GPU_Hours":0.018055555555556,"App":"PointWise","JobName":"cubevnc","JobId":"7628","Queue":"local","Cluster":"aip","CPU_Hours":0.018055555555556,"User":"amd_app","Mem_GB_Hours":0.0046156194474962,"runTime":0.018055555555556,"JobDescription":"Pw_test","GPU_Cost":0.0063194444444444,"CPU_Cost":0.0063194444444444,"Mem_Cost":0.00032309336132473,"App_Cost":0.063194444444444},{"EndDate":"2020\/08\/11","GPU_Hours":4.3252777777778,"App":"ICEPAK","JobName":"cubevnc","JobId":"7618","Queue":"local","Cluster":"aip","CPU_Hours":4.3252777777778,"User":"amd_app","Mem_GB_Hours":3.4355684820811,"runTime":4.3252777777778,"JobDescription":"IcePak_test","GPU_Cost":1.5138472222222,"CPU_Cost":1.5138472222222,"Mem_Cost":0.24048979374568,"App_Cost":0},{"EndDate":"2020\/08\/11","GPU_Hours":0.20472222222222,"App":"ICEPAK","JobName":"cubevnc","JobId":"7633","Queue":"local","Cluster":"aip","CPU_Hours":0.20472222222222,"User":"amd_app","Mem_GB_Hours":0.091804965337118,"runTime":0.20472222222222,"JobDescription":"icepak_test","GPU_Cost":0.071652777777778,"CPU_Cost":0.071652777777778,"Mem_Cost":0.0064263475735982,"App_Cost":0},{"EndDate":"2020\/08\/11","GPU_Hours":2.9216666666667,"App":"PointWise","JobName":"cubevnc","JobId":"7630","Queue":"local","Cluster":"aip","CPU_Hours":2.9216666666667,"User":"amd_app","Mem_GB_Hours":0.74371297836304,"runTime":2.9216666666667,"JobDescription":"Pw_test","GPU_Cost":1.0225833333333,"CPU_Cost":1.0225833333333,"Mem_Cost":0.052059908485413,"App_Cost":10.225833333333},{"EndDate":"2020\/08\/11","GPU_Hours":0,"App":"Fluent","JobName":"cubevnc","JobId":"7607","Queue":"q_x86_share","Cluster":"aip","CPU_Hours":9.9097222222222,"User":"amd_app","Mem_GB_Hours":0.83456778526306,"runTime":9.9097222222222,"JobDescription":"Fluent_test","GPU_Cost":0,"CPU_Cost":3.4684027777778,"Mem_Cost":0.058419744968414,"App_Cost":34.684027777778},{"EndDate":"2020\/08\/11","GPU_Hours":0,"App":"StarCCM","JobName":"cubevnc","JobId":"7642","Queue":"q_x86_share_plus","Cluster":"aip","CPU_Hours":0.051666666666667,"User":"amd_app","Mem_GB_Hours":0.017596534093221,"runTime":0.025833333333333,"JobDescription":"starccm_test","GPU_Cost":0,"CPU_Cost":0.018083333333333,"Mem_Cost":0.0012317573865255,"App_Cost":0.18083333333333},{"EndDate":"2020\/08\/11","GPU_Hours":0.040555555555556,"App":"Hypermesh","JobName":"cubevnc","JobId":"7645","Queue":"local","Cluster":"aip","CPU_Hours":0.040555555555556,"User":"amd_app","Mem_GB_Hours":0.038930202060276,"runTime":0.040555555555556,"JobDescription":"hmdesktop","GPU_Cost":0.014194444444444,"CPU_Cost":0.014194444444444,"Mem_Cost":0.0027251141442193,"App_Cost":0},{"EndDate":"2020\/08\/12","GPU_Hours":0,"App":"Fluent","JobName":"cubevnc","JobId":"7644","Queue":"q_x86_share","Cluster":"aip","CPU_Hours":86.12,"User":"amd_app","Mem_GB_Hours":0.90014953613281,"runTime":10.765,"JobDescription":"fluent_test","GPU_Cost":0,"CPU_Cost":30.142,"Mem_Cost":0.063010467529297,"App_Cost":301.42},{"EndDate":"2020\/08\/12","GPU_Hours":0,"App":"Fluent","JobName":"\/home\/export\/online3\/amd_app\/dzj\/icepak\/canshuhua1\/canshuhua100.uns_in","JobId":"7662","Queue":"q_x86_vio_share","Cluster":"aip","CPU_Hours":0.088888888888889,"User":"amd_app","Mem_GB_Hours":0.0002518547905816,"runTime":0.022222222222222,"JobDescription":"canshuhua100.uns_in","GPU_Cost":0,"CPU_Cost":0.018666666666667,"Mem_Cost":1.7629835340712e-5,"App_Cost":0.31111111111111},{"EndDate":"2020\/08\/12","GPU_Hours":0,"App":"Fluent","JobName":"\/home\/export\/online3\/amd_app\/dzj\/icepak\/canshuhua1\/canshuhua100.uns_in","JobId":"7663","Queue":"q_x86_vio_share","Cluster":"aip","CPU_Hours":0.076666666666667,"User":"amd_app","Mem_GB_Hours":0.00021707852681478,"runTime":0.019166666666667,"JobDescription":"canshuhua100.uns_in","GPU_Cost":0,"CPU_Cost":0.0161,"Mem_Cost":1.5195496877035e-5,"App_Cost":0.26833333333333},{"EndDate":"2020\/08\/12","GPU_Hours":0,"App":"Fluent","JobName":"\/home\/export\/online3\/amd_app\/dzj\/icepak\/canshuhua1\/canshuhua100.uns_in","JobId":"7661","Queue":"q_x86_vio_share","Cluster":"aip","CPU_Hours":2.9533333333333,"User":"amd_app","Mem_GB_Hours":0.0041783046722412,"runTime":0.36916666666667,"JobDescription":"canshuhua100.uns_in","GPU_Cost":0,"CPU_Cost":0.6202,"Mem_Cost":0.00029248132705688,"App_Cost":10.336666666667},{"EndDate":"2020\/08\/12","GPU_Hours":0,"App":"Fluent","JobName":"\/home\/export\/online3\/amd_app\/dzj\/icepak\/canshuhua1\/canshuhua100.uns_in","JobId":"7664","Queue":"q_x86_vio_share","Cluster":"aip","CPU_Hours":0.79111111111111,"User":"amd_app","Mem_GB_Hours":0.00028018845452203,"runTime":0.024722222222222,"JobDescription":"canshuhua100.uns_in","GPU_Cost":0,"CPU_Cost":0.16613333333333,"Mem_Cost":1.9613191816542e-5,"App_Cost":2.7688888888889},{"EndDate":"2020\/08\/12","GPU_Hours":23.531666666667,"App":"Hypermesh","JobName":"cubevnc","JobId":"7620","Queue":"local","Cluster":"aip","CPU_Hours":23.531666666667,"User":"amd_app","Mem_GB_Hours":27.303731505076,"runTime":23.531666666667,"JobDescription":"hmdesktop","GPU_Cost":8.2360833333333,"CPU_Cost":8.2360833333333,"Mem_Cost":1.9112612053553,"App_Cost":0},{"EndDate":"2020\/08\/13","GPU_Hours":0.021944444444444,"App":"ParaView","JobName":"cubevnc","JobId":"7805","Queue":"local","Cluster":"aip","CPU_Hours":0.021944444444444,"User":"amd_app","Mem_GB_Hours":0.0080287615458171,"runTime":0.021944444444444,"JobDescription":"paraview813","GPU_Cost":0.0076805555555556,"CPU_Cost":0.0076805555555556,"Mem_Cost":0.00056201330820719,"App_Cost":0.0076805555555556},{"EndDate":"2020\/08\/13","GPU_Hours":0,"App":"Fluent","JobName":"cubevnc","JobId":"7804","Queue":"q_x86_expr","Cluster":"aip","CPU_Hours":0.99805555555556,"User":"amd_app","Mem_GB_Hours":0.086878317726983,"runTime":0.99805555555556,"JobDescription":"fuent813","GPU_Cost":0,"CPU_Cost":0.34931944444444,"Mem_Cost":0.0060814822408888,"App_Cost":3.4931944444444},{"EndDate":"2020\/08\/13","GPU_Hours":26.156388888889,"App":"ICEPAK","JobName":"cubevnc","JobId":"7660","Queue":"local","Cluster":"aip","CPU_Hours":26.156388888889,"User":"amd_app","Mem_GB_Hours":7.1136230066088,"runTime":26.156388888889,"JobDescription":"icepak_test","GPU_Cost":9.1547361111111,"CPU_Cost":9.1547361111111,"Mem_Cost":0.49795361046261,"App_Cost":0},{"EndDate":"2020\/08\/13","GPU_Hours":28.078333333333,"App":"ICEPAK","JobName":"cubevnc","JobId":"7657","Queue":"local","Cluster":"aip","CPU_Hours":28.078333333333,"User":"amd_app","Mem_GB_Hours":13.917060877482,"runTime":28.078333333333,"JobDescription":"IcePAK_test","GPU_Cost":9.8274166666667,"CPU_Cost":9.8274166666667,"Mem_Cost":0.97419426142375,"App_Cost":0},{"EndDate":"2020\/08\/13","GPU_Hours":4.4383333333333,"App":"ParaView","JobName":"cubevnc","JobId":"7807","Queue":"local","Cluster":"aip","CPU_Hours":4.4383333333333,"User":"amd_app","Mem_GB_Hours":1.756225121816,"runTime":4.4383333333333,"JobDescription":"pv813","GPU_Cost":1.5534166666667,"CPU_Cost":1.5534166666667,"Mem_Cost":0.12293575852712,"App_Cost":1.5534166666667},{"EndDate":"2020\/08\/13","GPU_Hours":45.485833333333,"App":"Hypermesh","JobName":"cubevnc","JobId":"7613","Queue":"local","Cluster":"aip","CPU_Hours":45.485833333333,"User":"amd_app","Mem_GB_Hours":56.947519302368,"runTime":45.485833333333,"JobDescription":"hm01","GPU_Cost":15.920041666667,"CPU_Cost":15.920041666667,"Mem_Cost":3.9863263511658,"App_Cost":0},{"EndDate":"2020\/08\/13","GPU_Hours":0.0083333333333333,"App":"PointWise","JobName":"cubevnc","JobId":"7813","Queue":"local","Cluster":"aip","CPU_Hours":0.0083333333333333,"User":"amd_app","Mem_GB_Hours":0.002109432220459,"runTime":0.0083333333333333,"JobDescription":"starccm_test","GPU_Cost":0.0029166666666667,"CPU_Cost":0.0029166666666667,"Mem_Cost":0.00014766025543213,"App_Cost":0.029166666666667},{"EndDate":"2020\/08\/13","GPU_Hours":0.061388888888889,"App":"PointWise","JobName":"cubevnc","JobId":"7815","Queue":"local","Cluster":"aip","CPU_Hours":0.061388888888889,"User":"amd_app","Mem_GB_Hours":0.018899030685425,"runTime":0.061388888888889,"JobDescription":"PW_test4","GPU_Cost":0.021486111111111,"CPU_Cost":0.021486111111111,"Mem_Cost":0.0013229321479797,"App_Cost":0.21486111111111},{"EndDate":"2020\/08\/13","GPU_Hours":0,"App":"StarCCM","JobName":"cubevnc","JobId":"7814","Queue":"q_x86_share_plus","Cluster":"aip","CPU_Hours":1.1411111111111,"User":"amd_app","Mem_GB_Hours":0.063128450181749,"runTime":0.087777777777778,"JobDescription":"starccm_test2","GPU_Cost":0,"CPU_Cost":0.39938888888889,"Mem_Cost":0.0044189915127224,"App_Cost":3.9938888888889},{"EndDate":"2020\/08\/14","GPU_Hours":0,"App":"Abaqus614\u63d0\u4ea4inp\u591a\u8282\u70b9","JobName":"","JobId":"7850","Queue":"q_x86_vio_share","Cluster":"aip","CPU_Hours":19.591111111111,"User":"amd_app","Mem_GB_Hours":0.0032591099209256,"runTime":0.30611111111111,"JobDescription":"car2car01","GPU_Cost":0,"CPU_Cost":4.1141333333333,"Mem_Cost":0.00022813769446479,"App_Cost":0},{"EndDate":"2020\/08\/14","GPU_Hours":0,"App":"Abaqus614\u63d0\u4ea4inp\u591a\u8282\u70b9","JobName":"","JobId":"7859","Queue":"q_x86_vio_share","Cluster":"aip","CPU_Hours":3.8222222222222,"User":"amd_app","Mem_GB_Hours":0.0012717035081651,"runTime":0.11944444444444,"JobDescription":"abaqus01","GPU_Cost":0,"CPU_Cost":0.80266666666667,"Mem_Cost":8.901924557156e-5,"App_Cost":0},{"EndDate":"2020\/08\/14","GPU_Hours":0,"App":"Abaqus614\u63d0\u4ea4inp\u591a\u8282\u70b9","JobName":"","JobId":"7860","Queue":"q_x86_vio_share","Cluster":"aip","CPU_Hours":1.9377777777778,"User":"amd_app","Mem_GB_Hours":0.00064472410413954,"runTime":0.060555555555556,"JobDescription":"aba614new01","GPU_Cost":0,"CPU_Cost":0.40693333333333,"Mem_Cost":4.5130687289768e-5,"App_Cost":0},{"EndDate":"2020\/08\/14","GPU_Hours":0,"App":"Abaqus614\u63d0\u4ea4inp\u591a\u8282\u70b9","JobName":"","JobId":"7862","Queue":"q_x86_vio_share","Cluster":"aip","CPU_Hours":11.004444444444,"User":"amd_app","Mem_GB_Hours":0.0036744414435493,"runTime":0.34388888888889,"JobDescription":"40","GPU_Cost":0,"CPU_Cost":2.3109333333333,"Mem_Cost":0.00025721090104845,"App_Cost":0},{"EndDate":"2020\/08\/14","GPU_Hours":0,"App":"Abaqus614\u63d0\u4ea4inp\u591a\u8282\u70b9","JobName":"","JobId":"7873","Queue":"q_x86_vio_share","Cluster":"aip","CPU_Hours":1.1733333333333,"User":"amd_app","Mem_GB_Hours":0.00039178212483724,"runTime":0.036666666666667,"JobDescription":"cc01","GPU_Cost":0,"CPU_Cost":0.2464,"Mem_Cost":2.7424748738607e-5,"App_Cost":0},{"EndDate":"2020\/08\/14","GPU_Hours":0,"App":"Abaqus614\u63d0\u4ea4inp\u591a\u8282\u70b9","JobName":"","JobId":"7880","Queue":"q_x86_vio_share","Cluster":"aip","CPU_Hours":2.5688888888889,"User":"amd_app","Mem_GB_Hours":0.00085807164510091,"runTime":0.080277777777778,"JobDescription":"new61401","GPU_Cost":0,"CPU_Cost":0.53946666666667,"Mem_Cost":6.0065015157064e-5,"App_Cost":0},{"EndDate":"2020\/08\/14","GPU_Hours":0.11583333333333,"App":"Abaqus","JobName":"cubevnc","JobId":"7917","Queue":"local","Cluster":"aip","CPU_Hours":0.11583333333333,"User":"amd_app","Mem_GB_Hours":0.072495695749919,"runTime":0.11583333333333,"JobDescription":"abaqus_test","GPU_Cost":0.040541666666667,"CPU_Cost":0.040541666666667,"Mem_Cost":0.0050746987024943,"App_Cost":0.40541666666667},{"EndDate":"2020\/08\/14","GPU_Hours":0.027777777777778,"App":"LSPrePost","JobName":"cubevnc","JobId":"7920","Queue":"local","Cluster":"aip","CPU_Hours":0.027777777777778,"User":"amd_app","Mem_GB_Hours":0.0072947608100043,"runTime":0.027777777777778,"JobDescription":"LS_TEST","GPU_Cost":0.0097222222222222,"CPU_Cost":0.0097222222222222,"Mem_Cost":0.0005106332567003,"App_Cost":0},{"EndDate":"2020\/08\/15","GPU_Hours":21.842777777778,"App":"ParaView","JobName":"cubevnc","JobId":"7883","Queue":"local","Cluster":"aip","CPU_Hours":21.842777777778,"User":"amd_app","Mem_GB_Hours":7.1178338962131,"runTime":21.842777777778,"JobDescription":"pv813","GPU_Cost":7.6449722222222,"CPU_Cost":7.6449722222222,"Mem_Cost":0.49824837273492,"App_Cost":7.6449722222222},{"EndDate":"2020\/08\/15","GPU_Hours":23.723888888889,"App":"ICEPAK","JobName":"cubevnc","JobId":"7853","Queue":"local","Cluster":"aip","CPU_Hours":23.723888888889,"User":"amd_app","Mem_GB_Hours":7.5053007253011,"runTime":23.723888888889,"JobDescription":"icepak_test","GPU_Cost":8.3033611111111,"CPU_Cost":8.3033611111111,"Mem_Cost":0.52537105077108,"App_Cost":0},{"EndDate":"2020\/08\/15","GPU_Hours":0,"App":"PointWise","JobName":"cubevnc","JobId":"7847","Queue":"local","Cluster":"aip","CPU_Hours":25.500277777778,"User":"amd_app","Mem_GB_Hours":76.318830236859,"runTime":25.500277777778,"JobDescription":"PW_test","GPU_Cost":0,"CPU_Cost":8.9250972222222,"Mem_Cost":5.3423181165801,"App_Cost":89.250972222222},{"EndDate":"2020\/08\/15","GPU_Hours":20.709166666667,"App":"TankSim","JobName":"cubevnc","JobId":"7888","Queue":"local","Cluster":"aip","CPU_Hours":20.709166666667,"User":"amd_app","Mem_GB_Hours":3.5474591414134,"runTime":20.709166666667,"JobDescription":"tanksim_job","GPU_Cost":7.2482083333333,"CPU_Cost":7.2482083333333,"Mem_Cost":0.24832213989894,"App_Cost":14.496416666667},{"EndDate":"2020\/08\/15","GPU_Hours":0,"App":"StarCCM","JobName":"cubevnc","JobId":"7944","Queue":"q_x86_expr_plus","Cluster":"aip","CPU_Hours":9.2291666666667,"User":"amd_app","Mem_GB_Hours":0.27458939552307,"runTime":0.36916666666667,"JobDescription":"starccm_test2","GPU_Cost":0,"CPU_Cost":3.2302083333333,"Mem_Cost":0.019221257686615,"App_Cost":32.302083333333},{"EndDate":"2020\/08\/15","GPU_Hours":0.11916666666667,"App":"Abaqus","JobName":"cubevnc","JobId":"7946","Queue":"local","Cluster":"aip","CPU_Hours":0.11916666666667,"User":"amd_app","Mem_GB_Hours":0.061491680145264,"runTime":0.11916666666667,"JobDescription":"abaqus_test","GPU_Cost":0.041708333333333,"CPU_Cost":0.041708333333333,"Mem_Cost":0.0043044176101685,"App_Cost":0.41708333333333},{"EndDate":"2020\/08\/15","GPU_Hours":0,"App":"FluentBatch","JobName":"","JobId":"7962","Queue":"q_x86_expr","Cluster":"aip","CPU_Hours":0.0025,"User":"amd_app","Mem_GB_Hours":2.7017593383789e-5,"runTime":0.0025,"JobDescription":"newls01","GPU_Cost":0,"CPU_Cost":0.000875,"Mem_Cost":1.8912315368652e-6,"App_Cost":0},{"EndDate":"2020\/08\/15","GPU_Hours":0,"App":"Abaqus2017","JobName":"Job-121534","JobId":"7964","Queue":"q_x86_expr","Cluster":"aip","CPU_Hours":0.066666666666667,"User":"amd_app","Mem_GB_Hours":3.0040740966797e-5,"runTime":0.0027777777777778,"JobDescription":"Job-121534-e1","GPU_Cost":0,"CPU_Cost":0.023333333333333,"Mem_Cost":2.1028518676758e-6,"App_Cost":0.23333333333333},{"EndDate":"2020\/08\/15","GPU_Hours":0.53722222222222,"App":"Abaqus","JobName":"cubevnc","JobId":"7960","Queue":"local","Cluster":"aip","CPU_Hours":0.53722222222222,"User":"amd_app","Mem_GB_Hours":0.33890142864651,"runTime":0.53722222222222,"JobDescription":"new001","GPU_Cost":0.18802777777778,"CPU_Cost":0.18802777777778,"Mem_Cost":0.023723100005256,"App_Cost":1.8802777777778},{"EndDate":"2020\/08\/15","GPU_Hours":0,"App":"Abaqus2017","JobName":"Job-124211","JobId":"7969","Queue":"q_x86_expr","Cluster":"aip","CPU_Hours":0.20666666666667,"User":"amd_app","Mem_GB_Hours":9.312629699707e-5,"runTime":0.0086111111111111,"JobDescription":"Job-124211-e1","GPU_Cost":0,"CPU_Cost":0.072333333333333,"Mem_Cost":6.5188407897949e-6,"App_Cost":0.72333333333333},{"EndDate":"2020\/08\/15","GPU_Hours":0.12611111111111,"App":"Abaqus","JobName":"cubevnc","JobId":"7967","Queue":"local","Cluster":"aip","CPU_Hours":0.12611111111111,"User":"amd_app","Mem_GB_Hours":0.078958475324843,"runTime
[...]
66666666667,"User":"amd_app","Mem_GB_Hours":0.010463460286458,"runTime":0.53333333333333,"JobDescription":"Batch-Abaqus-20200825154813","GPU_Cost":0,"CPU_Cost":0.37333333333333,"Mem_Cost":0.00073244222005208,"App_Cost":3.7333333333333},{"EndDate":"2020\/08\/25","GPU_Hours":0,"App":"AnsysAPDL","JobName":"cubevnc","JobId":"9422","Queue":"local","Cluster":"aip","CPU_Hours":1.7227777777778,"User":"amd_app","Mem_GB_Hours":1.515303662618,"runTime":1.7227777777778,"JobDescription":"AnsysAPDL-20200825143651","GPU_Cost":0,"CPU_Cost":0.60297222222222,"Mem_Cost":0.10607125638326,"App_Cost":0},{"EndDate":"2020\/08\/25","GPU_Hours":0,"App":"STARCCM+","JobName":"","JobId":"9464","Queue":"q_x86_share","Cluster":"aip","CPU_Hours":0.26694444444444,"User":"amd_app","Mem_GB_Hours":0.0055375819736057,"runTime":0.26694444444444,"JobDescription":"Batch-STARCCM+-20200825160415","GPU_Cost":0,"CPU_Cost":0.093430555555556,"Mem_Cost":0.0003876307381524,"App_Cost":0},{"EndDate":"2020\/08\/25","GPU_Hours":0.0044444444444444,"App":"PointWise","JobName":"cubevnc","JobId":"9465","Queue":"local","Cluster":"aip","CPU_Hours":0.0044444444444444,"User":"amd_app","Mem_GB_Hours":0.0013247341579861,"runTime":0.0044444444444444,"JobDescription":"pw-test","GPU_Cost":0.0015555555555556,"CPU_Cost":0.0015555555555556,"Mem_Cost":9.2731391059028e-5,"App_Cost":0.015555555555556},{"EndDate":"2020\/08\/25","GPU_Hours":0,"App":"Fluent","JobName":"\/home\/export\/online3\/amd_app\/dzj\/icepak\/icepak00.uns_in","JobId":"9469","Queue":"q_x86_expr","Cluster":"aip","CPU_Hours":0.022777777777778,"User":"amd_app","Mem_GB_Hours":0.00022326469421387,"runTime":0.011388888888889,"JobDescription":"icepak00.uns_in","GPU_Cost":0,"CPU_Cost":0.0079722222222222,"Mem_Cost":1.5628528594971e-5,"App_Cost":0.079722222222222},{"EndDate":"2020\/08\/25","GPU_Hours":0,"App":"Fluent","JobName":"\/home\/export\/online3\/amd_app\/dzj\/icepak\/Ch5\/HangingNode00.uns_in","JobId":"9470","Queue":"q_x86_share","Cluster":"aip","CPU_Hours":0.63555555555556,"User":"amd_app","Mem_GB_Hours":0.0031172392103407,"runTime":0.15888888888889,"JobDescription":"HangingNode00.uns_in","GPU_Cost":0,"CPU_Cost":0.22244444444444,"Mem_Cost":0.00021820674472385,"App_Cost":2.2244444444444},{"EndDate":"2020\/08\/26","GPU_Hours":0.31583333333333,"App":"PointWise","JobName":"cubevnc","JobId":"9496","Queue":"local","Cluster":"aip","CPU_Hours":0.31583333333333,"User":"amd_app","Mem_GB_Hours":0.089088363647461,"runTime":0.31583333333333,"JobDescription":"pw","GPU_Cost":0.11054166666667,"CPU_Cost":0.11054166666667,"Mem_Cost":0.0062361854553223,"App_Cost":1.1054166666667},{"EndDate":"2020\/08\/26","GPU_Hours":0.0088888888888889,"App":"Hypermesh","JobName":"cubevnc","JobId":"9500","Queue":"local","Cluster":"aip","CPU_Hours":0.0088888888888889,"User":"amd_app","Mem_GB_Hours":0.0011861165364583,"runTime":0.0088888888888889,"JobDescription":"Hypermesh-20200826104354","GPU_Cost":0.0031111111111111,"CPU_Cost":0.0031111111111111,"Mem_Cost":8.3028157552083e-5,"App_Cost":0},{"EndDate":"2020\/08\/26","GPU_Hours":0,"App":"StarCCM","JobName":"cubevnc","JobId":"9495","Queue":"q_x86_expr_plus","Cluster":"aip","CPU_Hours":1.7341666666667,"User":"amd_app","Mem_GB_Hours":0.40554121865167,"runTime":0.57805555555556,"JobDescription":"StarccmBatch3","GPU_Cost":0,"CPU_Cost":0.60695833333333,"Mem_Cost":0.028387885305617,"App_Cost":6.0695833333333},{"EndDate":"2020\/08\/26","GPU_Hours":16.887777777778,"App":"ParaView","JobName":"cubevnc","JobId":"9471","Queue":"local","Cluster":"aip","CPU_Hours":16.887777777778,"User":"amd_app","Mem_GB_Hours":12.23800842709,"runTime":16.887777777778,"JobDescription":"ParaView-20200825175142","GPU_Cost":5.9107222222222,"CPU_Cost":5.9107222222222,"Mem_Cost":0.85666058989631,"App_Cost":5.9107222222222},{"EndDate":"2020\/08\/26","GPU_Hours":1.5752777777778,"App":"Hypermesh","JobName":"cubevnc","JobId":"9488","Queue":"local","Cluster":"aip","CPU_Hours":1.5752777777778,"User":"amd_app","Mem_GB_Hours":1.4206788878971,"runTime":1.5752777777778,"JobDescription":"Hypermesh-20200826091040","GPU_Cost":0.55134722222222,"CPU_Cost":0.55134722222222,"Mem_Cost":0.099447522152795,"App_Cost":0},{"EndDate":"2020\/08\/26","GPU_Hours":18.104444444444,"App":"ICEPAK","JobName":"cubevnc","JobId":"9466","Queue":"local","Cluster":"aip","CPU_Hours":18.104444444444,"User":"amd_app","Mem_GB_Hours":4.6732152472602,"runTime":18.104444444444,"JobDescription":"ICEPAK-20200825164730","GPU_Cost":6.3365555555556,"CPU_Cost":6.3365555555556,"Mem_Cost":0.32712506730821,"App_Cost":0},{"EndDate":"2020\/08\/26","GPU_Hours":0.030277777777778,"App":"PointWise","JobName":"cubevnc","JobId":"9506","Queue":"local","Cluster":"aip","CPU_Hours":0.030277777777778,"User":"amd_app","Mem_GB_Hours":0.0090498150719537,"runTime":0.030277777777778,"JobDescription":"PointWise-20200826105207","GPU_Cost":0.010597222222222,"CPU_Cost":0.010597222222222,"Mem_Cost":0.00063348705503676,"App_Cost":0.10597222222222},{"EndDate":"2020\/08\/26","GPU_Hours":0.18277777777778,"App":"Hypermesh","JobName":"cubevnc","JobId":"9499","Queue":"local","Cluster":"aip","CPU_Hours":0.18277777777778,"User":"amd_app","Mem_GB_Hours":0.16470108456082,"runTime":0.18277777777778,"JobDescription":"Hypermesh-20200826104313","GPU_Cost":0.063972222222222,"CPU_Cost":0.063972222222222,"Mem_Cost":0.011529075919257,"App_Cost":0},{"EndDate":"2020\/08\/26","GPU_Hours":0.031388888888889,"App":"Hypermesh","JobName":"cubevnc","JobId":"9508","Queue":"local","Cluster":"aip","CPU_Hours":0.031388888888889,"User":"amd_app","Mem_GB_Hours":0.032883711920844,"runTime":0.031388888888889,"JobDescription":"Hypermesh-20200826105313","GPU_Cost":0.010986111111111,"CPU_Cost":0.010986111111111,"Mem_Cost":0.0023018598344591,"App_Cost":0},{"EndDate":"2020\/08\/26","GPU_Hours":0.059166666666667,"App":"Abaqus","JobName":"cubevnc","JobId":"9507","Queue":"local","Cluster":"aip","CPU_Hours":0.059166666666667,"User":"amd_app","Mem_GB_Hours":0.03165709177653,"runTime":0.059166666666667,"JobDescription":"Abaqus-20200826105210","GPU_Cost":0.020708333333333,"CPU_Cost":0.020708333333333,"Mem_Cost":0.0022159964243571,"App_Cost":0.20708333333333},{"EndDate":"2020\/08\/26","GPU_Hours":0,"App":"AnsysAPDL","JobName":"cubevnc","JobId":"9503","Queue":"local","Cluster":"aip","CPU_Hours":0.2875,"User":"amd_app","Mem_GB_Hours":0.24151759147644,"runTime":0.2875,"JobDescription":"AnsysAPDL-20200826104630","GPU_Cost":0,"CPU_Cost":0.100625,"Mem_Cost":0.016906231403351,"App_Cost":0},{"EndDate":"2020\/08\/26","GPU_Hours":0.10583333333333,"App":"ParaView","JobName":"cubevnc","JobId":"9515","Queue":"local","Cluster":"aip","CPU_Hours":0.10583333333333,"User":"amd_app","Mem_GB_Hours":0.61546792348226,"runTime":0.10583333333333,"JobDescription":"ParaView-20200826143526","GPU_Cost":0.037041666666667,"CPU_Cost":0.037041666666667,"Mem_Cost":0.043082754643758,"App_Cost":0.037041666666667},{"EndDate":"2020\/08\/26","GPU_Hours":1.2405555555556,"App":"ParaView","JobName":"cubevnc","JobId":"9516","Queue":"local","Cluster":"aip","CPU_Hours":1.2405555555556,"User":"amd_app","Mem_GB_Hours":7.0130591625637,"runTime":1.2405555555556,"JobDescription":"ParaView-20200826144153","GPU_Cost":0.43419444444444,"CPU_Cost":0.43419444444444,"Mem_Cost":0.49091414137946,"App_Cost":0.43419444444444},{"EndDate":"2020\/08\/26","GPU_Hours":0.0016666666666667,"App":"Hypermesh","JobName":"cubevnc","JobId":"9529","Queue":"local","Cluster":"aip","CPU_Hours":0.0016666666666667,"User":"amd_app","Mem_GB_Hours":0.0002041498819987,"runTime":0.0016666666666667,"JobDescription":"Hypermesh-20200826202256","GPU_Cost":0.00058333333333333,"CPU_Cost":0.00058333333333333,"Mem_Cost":1.4290491739909e-5,"App_Cost":0},{"EndDate":"2020\/08\/26","GPU_Hours":0.0036111111111111,"App":"Hypermesh","JobName":"cubevnc","JobId":"9530","Queue":"local","Cluster":"aip","CPU_Hours":0.0036111111111111,"User":"amd_app","Mem_GB_Hours":0.00042949994405111,"runTime":0.0036111111111111,"JobDescription":"Hypermesh-20200826202601","GPU_Cost":0.0012638888888889,"CPU_Cost":0.0012638888888889,"Mem_Cost":3.0064996083577e-5,"App_Cost":0},{"EndDate":"2020\/08\/26","GPU_Hours":0.0019444444444444,"App":"Hypermesh","JobName":"cubevnc","JobId":"9531","Queue":"local","Cluster":"aip","CPU_Hours":0.0019444444444444,"User":"amd_app","Mem_GB_Hours":3.107918633355e-5,"runTime":0.0019444444444444,"JobDescription":"Hypermesh-20200826202646","GPU_Cost":0.00068055555555556,"CPU_Cost":0.00068055555555556,"Mem_Cost":2.1755430433485e-6,"App_Cost":0},{"EndDate":"2020\/08\/26","GPU_Hours":0.0033333333333333,"App":"Hypermesh","JobName":"cubevnc","JobId":"9532","Queue":"local","Cluster":"aip","CPU_Hours":0.0033333333333333,"User":"amd_app","Mem_GB_Hours":0.00038979848225911,"runTime":0.0033333333333333,"JobDescription":"Hypermesh-20200826202711","GPU_Cost":0.0011666666666667,"CPU_Cost":0.0011666666666667,"Mem_Cost":2.7285893758138e-5,"App_Cost":0},{"EndDate":"2020\/08\/26","GPU_Hours":0,"App":"AnsysAPDL","JobName":"cubevnc","JobId":"9523","Queue":"local","Cluster":"aip","CPU_Hours":3.5591666666667,"User":"amd_app","Mem_GB_Hours":0.55322786013285,"runTime":3.5591666666667,"JobDescription":"ansys01","GPU_Cost":0,"CPU_Cost":1.2457083333333,"Mem_Cost":0.0387259502093,"App_Cost":0},{"EndDate":"2020\/08\/26","GPU_Hours":3.7119444444444,"App":"LSPrePost","JobName":"cubevnc","JobId":"9521","Queue":"local","Cluster":"aip","CPU_Hours":3.7119444444444,"User":"amd_app","Mem_GB_Hours":1.18910964436,"runTime":3.7119444444444,"JobDescription":"LSPrePost-20200826164831","GPU_Cost":1.2991805555556,"CPU_Cost":1.2991805555556,"Mem_Cost":0.083237675105201,"App_Cost":0},{"EndDate":"2020\/08\/26","GPU_Hours":9.6544444444444,"App":"TankSim","JobName":"cubevnc","JobId":"9505","Queue":"local","Cluster":"aip","CPU_Hours":9.6544444444444,"User":"amd_app","Mem_GB_Hours":2.6946883816189,"runTime":9.6544444444444,"JobDescription":"TankSim-20200826105158","GPU_Cost":3.3790555555556,"CPU_Cost":3.3790555555556,"Mem_Cost":0.18862818671332,"App_Cost":6.7581111111111},{"EndDate":"2020\/08\/26","GPU_Hours":27.712777777778,"App":"ICEPAK","JobName":"cubevnc","JobId":"9467","Queue":"local","Cluster":"aip","CPU_Hours":27.712777777778,"User":"amd_app","Mem_GB_Hours":133.45897584067,"runTime":27.712777777778,"JobDescription":"ICEPAK-20200825164831","GPU_Cost":9.6994722222222,"CPU_Cost":9.6994722222222,"Mem_Cost":9.3421283088472,"App_Cost":0},{"EndDate":"2020\/08\/26","GPU_Hours":0,"App":"Fluent","JobName":"cubevnc","JobId":"9522","Queue":"q_x86_share","Cluster":"aip","CPU_Hours":88.546666666667,"User":"amd_app","Mem_GB_Hours":0.32408461464776,"runTime":3.6894444444444,"JobDescription":"fl02","GPU_Cost":0,"CPU_Cost":30.991333333333,"Mem_Cost":0.022685923025343,"App_Cost":309.91333333333},{"EndDate":"2020\/08\/26","GPU_Hours":0,"App":"AnsysAPDL","JobName":"cubevnc","JobId":"9525","Queue":"local","Cluster":"aip","CPU_Hours":3.1233333333333,"User":"amd_app","Mem_GB_Hours":19.819579289754,"runTime":3.1233333333333,"JobDescription":"AnsysAPDL-20200826172357","GPU_Cost":0,"CPU_Cost":1.0931666666667,"Mem_Cost":1.3873705502828,"App_Cost":0},{"EndDate":"2020\/08\/26","GPU_Hours":6.695,"App":"Hypermesh","JobName":"cubevnc","JobId":"9513","Queue":"local","Cluster":"aip","CPU_Hours":6.695,"User":"amd_app","Mem_GB_Hours":7.9115947723389,"runTime":6.695,"JobDescription":"Hypermesh-20200826134940","GPU_Cost":2.34325,"CPU_Cost":2.34325,"Mem_Cost":0.55381163406372,"App_Cost":0},{"EndDate":"2020\/08\/26","GPU_Hours":9.7222222222222,"App":"Hypermesh","JobName":"cubevnc","JobId":"9504","Queue":"local","Cluster":"aip","CPU_Hours":9.7222222222222,"User":"amd_app","Mem_GB_Hours":8.8217417399089,"runTime":9.7222222222222,"JobDescription":"Hypermesh-20200826104801","GPU_Cost":3.4027777777778,"CPU_Cost":3.4027777777778,"Mem_Cost":0.61752192179362,"App_Cost":0},{"EndDate":"2020\/08\/26","GPU_Hours":0,"App":"AnsysAPDL","JobName":"cubevnc","JobId":"9512","Queue":"local","Cluster":"aip","CPU_Hours":6.7436111111111,"User":"amd_app","Mem_GB_Hours":4.4621269565158,"runTime":6.7436111111111,"JobDescription":"AnsysAPDL-20200826134644","GPU_Cost":0,"CPU_Cost":2.3602638888889,"Mem_Cost":0.31234888695611,"App_Cost":0},{"EndDate":"2020\/08\/26","GPU_Hours":9.7819444444444,"App":"Hypermesh","JobName":"cubevnc","JobId":"9501","Queue":"local","Cluster":"aip","CPU_Hours":9.7819444444444,"User":"amd_app","Mem_GB_Hours":2.2132738908132,"runTime":9.7819444444444,"JobDescription":"Hypermesh-20200826104426","GPU_Cost":3.4236805555556,"CPU_Cost":3.4236805555556,"Mem_Cost":0.15492917235692,"App_Cost":0},{"EndDate":"2020\/08\/26","GPU_Hours":0.039166666666667,"App":"Hypermesh","JobName":"cubevnc","JobId":"9534","Queue":"local","Cluster":"aip","CPU_Hours":0.039166666666667,"User":"amd_app","Mem_GB_Hours":0.040232400894165,"runTime":0.039166666666667,"JobDescription":"Hypermesh-20200826203343","GPU_Cost":0.013708333333333,"CPU_Cost":0.013708333333333,"Mem_Cost":0.0028162680625916,"App_Cost":0},{"EndDate":"2020\/08\/26","GPU_Hours":0,"App":"AnsysAPDL","JobName":"cubevnc","JobId":"9535","Queue":"local","Cluster":"aip","CPU_Hours":0.0063888888888889,"User":"amd_app","Mem_GB_Hours":0.0053062015109592,"runTime":0.0063888888888889,"JobDescription":"ansys","GPU_Cost":0,"CPU_Cost":0.0022361111111111,"Mem_Cost":0.00037143410576714,"App_Cost":0},{"EndDate":"2020\/08\/26","GPU_Hours":0.053611111111111,"App":"Hypermesh","JobName":"cubevnc","JobId":"9536","Queue":"local","Cluster":"aip","CPU_Hours":0.053611111111111,"User":"amd_app","Mem_GB_Hours":0.05311251534356,"runTime":0.053611111111111,"JobDescription":"HM_test","GPU_Cost":0.018763888888889,"CPU_Cost":0.018763888888889,"Mem_Cost":0.0037178760740492,"App_Cost":0},{"EndDate":"2020\/08\/26","GPU_Hours":0.011111111111111,"App":"PointWise","JobName":"cubevnc","JobId":"9538","Queue":"local","Cluster":"aip","CPU_Hours":0.011111111111111,"User":"amd_app","Mem_GB_Hours":0.0029941558837891,"runTime":0.011111111111111,"JobDescription":"PointWise-20200826211317","GPU_Cost":0.0038888888888889,"CPU_Cost":0.0038888888888889,"Mem_Cost":0.00020959091186523,"App_Cost":0.038888888888889},{"EndDate":"2020\/08\/26","GPU_Hours":0.005,"App":"PointWise","JobName":"cubevnc","JobId":"9540","Queue":"local","Cluster":"aip","CPU_Hours":0.005,"User":"amd_app","Mem_GB_Hours":0.0014254951477051,"runTime":0.005,"JobDescription":"PointWise-20200826211716","GPU_Cost":0.00175,"CPU_Cost":0.00175,"Mem_Cost":9.9784660339355e-5,"App_Cost":0.0175},{"EndDate":"2020\/08\/26","GPU_Hours":0.0047222222222222,"App":"ICEPAK","JobName":"cubevnc","JobId":"9541","Queue":"local","Cluster":"aip","CPU_Hours":0.0047222222222222,"User":"amd_app","Mem_GB_Hours":0.0014139970143636,"runTime":0.0047222222222222,"JobDescription":"ICEPAK-20200826212153","GPU_Cost":0.0016527777777778,"CPU_Cost":0.0016527777777778,"Mem_Cost":9.8979791005452e-5,"App_Cost":0},{"EndDate":"2020\/08\/26","GPU_Hours":0.0086111111111111,"App":"PointWise","JobName":"cubevnc","JobId":"9543","Queue":"local","Cluster":"aip","CPU_Hours":0.0086111111111111,"User":"amd_app","Mem_GB_Hours":0.0023645538753933,"runTime":0.0086111111111111,"JobDescription":"PointWise-20200826213433","GPU_Cost":0.0030138888888889,"CPU_Cost":0.0030138888888889,"Mem_Cost":0.00016551877127753,"App_Cost":0.030138888888889},{"EndDate":"2020\/08\/26","GPU_Hours":0.15638888888889,"App":"Hypermesh","JobName":"cubevnc","JobId":"9542","Queue":"local","Cluster":"aip","CPU_Hours":0.15638888888889,"User":"amd_app","Mem_GB_Hours":0.15622662014431,"runTime":0.15638888888889,"JobDescription":"Hypermesh-20200826212545","GPU_Cost":0.054736111111111,"CPU_Cost":0.054736111111111,"Mem_Cost":0.010935863410102,"App_Cost":0},{"EndDate":"2020\/08\/26","GPU_Hours":0.0077777777777778,"App":"PointWise","JobName":"cubevnc","JobId":"9544","Queue":"local","Cluster":"aip","CPU_Hours":0.0077777777777778,"User":"amd_app","Mem_GB_Hours":0.0021019617716471,"runTime":0.0077777777777778,"JobDescription":"PointWise-20200826213510","GPU_Cost":0.0027222222222222,"CPU_Cost":0.0027222222222222,"Mem_Cost":0.0001471373240153,"App_Cost":0.027222222222222},{"EndDate":"2020\/08\/26","GPU_Hours":0.31055555555556,"App":"PointWise","JobName":"cubevnc","JobId":"9539","Queue":"local","Cluster":"aip","CPU_Hours":0.31055555555556,"User":"amd_app","Mem_GB_Hours":0.10131344265408,"runTime":0.31055555555556,"JobDescription":"PointWise-20200826211700","GPU_Cost":0.10869444444444,"CPU_Cost":0.10869444444444,"Mem_Cost":0.0070919409857856,"App_Cost":1.0869444444444},{"EndDate":"2020\/08\/26","GPU_Hours":1.0572222222222,"App":"Hypermesh","JobName":"cubevnc","JobId":"9533","Queue":"local","Cluster":"aip","CPU_Hours":1.0572222222222,"User":"amd_app","Mem_GB_Hours":1.0555646663242,"runTime":1.0572222222222,"JobDescription":"Hypermesh-20200826203225","GPU_Cost":0.37002777777778,"CPU_Cost":0.37002777777778,"Mem_Cost":0.073889526642693,"App_Cost":0},{"EndDate":"2020\/08\/26","GPU_Hours":0.046944444444444,"App":"PointWise","JobName":"cubevnc","JobId":"9545","Queue":"local","Cluster":"aip","CPU_Hours":0.046944444444444,"User":"amd_app","Mem_GB_Hours":0.013034074571398,"runTime":0.046944444444444,"JobDescription":"PointWise-20200826213549","GPU_Cost":0.016430555555556,"CPU_Cost":0.016430555555556,"Mem_Cost":0.00091238521999783,"App_Cost":0.16430555555556},{"EndDate":"2020\/08\/26","GPU_Hours":0.014166666666667,"App":"Abaqus","JobName":"cubevnc","JobId":"9547","Queue":"local","Cluster":"aip","CPU_Hours":0.014166666666667,"User":"amd_app","Mem_GB_Hours":0.0080071194966634,"runTime":0.014166666666667,"JobDescription":"Abaqus-20200826213746","GPU_Cost":0.0049583333333333,"CPU_Cost":0.0049583333333333,"Mem_Cost":0.00056049836476644,"App_Cost":0.049583333333333},{"EndDate":"2020\/08\/26","GPU_Hours":0.026111111111111,"App":"Hypermesh","JobName":"cubevnc","JobId":"9546","Queue":"local","Cluster":"aip","CPU_Hours":0.026111111111111,"User":"amd_app","Mem_GB_Hours":0.024173973931207,"runTime":0.026111111111111,"JobDescription":"Hypermesh-20200826213710","GPU_Cost":0.0091388888888889,"CPU_Cost":0.0091388888888889,"Mem_Cost":0.0016921781751845,"App_Cost":0},{"EndDate":"2020\/08\/26","GPU_Hours":0.0052777777777778,"App":"PointWise","JobName":"cubevnc","JobId":"9548","Queue":"local","Cluster":"aip","CPU_Hours":0.0052777777777778,"User":"amd_app","Mem_GB_Hours":0.0014205127292209,"runTime":0.0052777777777778,"JobDescription":"PointWise-20200826213855","GPU_Cost":0.0018472222222222,"CPU_Cost":0.0018472222222222,"Mem_Cost":9.9435891045464e-5,"App_Cost":0.018472222222222},{"EndDate":"2020\/08\/26","GPU_Hours":0.0033333333333333,"App":"Abaqus","JobName":"cubevnc","JobId":"9550","Queue":"local","Cluster":"aip","CPU_Hours":0.0033333333333333,"User":"amd_app","Mem_GB_Hours":0.0010265604654948,"runTime":0.0033333333333333,"JobDescription":"Abaqus-20200826214011","GPU_Cost":0.0011666666666667,"CPU_Cost":0.0011666666666667,"Mem_Cost":7.1859232584635e-5,"App_Cost":0.011666666666667},{"EndDate":"2020\/08\/26","GPU_Hours":0.037777777777778,"App":"PointWise","JobName":"cubevnc","JobId":"9549","Queue":"local","Cluster":"aip","CPU_Hours":0.037777777777778,"User":"amd_app","Mem_GB_Hours":0.010513602362739,"runTime":0.037777777777778,"JobDescription":"PointWise-20200826213938","GPU_Cost":0.013222222222222,"CPU_Cost":0.013222222222222,"Mem_Cost":0.00073595216539171,"App_Cost":0.13222222222222},{"EndDate":"2020\/08\/26","GPU_Hours":0.0091666666666667,"App":"Hypermesh","JobName":"cubevnc","JobId":"9551","Queue":"local","Cluster":"aip","CPU_Hours":0.0091666666666667,"User":"amd_app","Mem_GB_Hours":0.008346316019694,"runTime":0.0091666666666667,"JobDescription":"Hypermesh-20200826214747","GPU_Cost":0.0032083333333333,"CPU_Cost":0.0032083333333333,"Mem_Cost":0.00058424212137858,"App_Cost":0},{"EndDate":"2020\/08\/26","GPU_Hours":0.415,"App":"Hypermesh","JobName":"cubevnc","JobId":"9552","Queue":"local","Cluster":"aip","CPU_Hours":0.415,"User":"amd_app","Mem_GB_Hours":0.42196880340576,"runTime":0.415,"JobDescription":"Hypermesh-20200826214818","GPU_Cost":0.14525,"CPU_Cost":0.14525,"Mem_Cost":0.029537816238403,"App_Cost":0}],"User":"amd_app"}