{
 "User": "amd_app",
 "Queues": "all",
 "Clusters": [
  "aip"
 ],
 "Month": "2020-10",
 "CPU_Hours": 6258.242943941753,
 "Mem_GB_Hours": 2851.348435108951,
 "GPU_Hours": 1031.5907586682274,
 "App_Cost": 11456.972479228081,
 "CPU_Cost": 560.7727607563828,
 "Mem_Cost": 0,
 "GPU_Cost": 88.77723038749859,
 "Total_Cost": 20799.828543682972,
 "App_Hours": {
  "Abaqus": {
   "Hours": 96.48880545683194,
   "Cost": 231.11530636339182
  },
  "Abaqus2017": {
   "Hours": 1.8488888888888888,
   "Cost": 9.244444444444444
  },
  "AnsysAPDL": {
   "Hours": 878.5555280656691,
   "Cost": 0
  },
  "CFD-POST": {
   "Hours": 0.03111111111111111,
   "Cost": 0
  },
  "CFX": {
   "Hours": 0.042777777777777776,
   "Cost": 0
  },
  "CFX-pre": {
   "Hours": 0.23751073839611112,
   "Cost": 0
  },
  "Fluent": {
   "Hours": 4238.280297768359,
   "Cost": 10580.79464823702
  },
  "FluentMeshing": {
   "Hours": 4.413785600834444,
   "Cost": 0
  },
  "Hypermesh": {
   "Hours": 19.220961606817216,
   "Cost": 0
  },
  "ICEM-CFD": {
   "Hours": 4.001546915132501,
   "Cost": 14.005414202963749
  },
  "ICEPAK": {
   "Hours": 384.4451911550274,
   "Cost": 0
  },
  "ICESimulator": {
   "Hours": 0.4925112446011112,
   "Cost": 0
  },
  "LS-DYNA": {
   "Hours": 0.01,
   "Cost": 0.05
  },
  "LSPrePost": {
   "Hours": 12.503858421785834,
   "Cost": 0
  },
  "ParaView": {
   "Hours": 302.60547766361094,
   "Cost": 95.27459238576041
  },
  "PointWise": {
   "Hours": 126.93724467797566,
   "Cost": 444.2609119284698
  },
  "STARCCM": {
   "Hours": 0.005286661448055555,
   "Cost": 0
  },
  "STARCCM+": {
   "Hours": 2.8931504837683333,
   "Cost": 14.465752418841667
  },
  "SWOF": {
   "Hours": 0.01888888888888889,
   "Cost": 0
  },
  "StarCCM": {
   "Hours": 34.05415909879556,
   "Cost": 34.80877525545
  },
  "TankSim": {
   "Hours": 80.87637643181611,
   "Cost": 32.95263399175942
  },
  "Tanksim": {
   "Hours": 18.034615700439996,
   "Cost": 0
  },
  "Tanksimulator-Calculix": {
   "Hours": 27.675596367194718,
   "Cost": 0
  },
  "Tanksimulator-MeshGenerate": {
   "Hours": 0.20833333333333337,
   "Cost": 0
  },
  "Tanksimulator-Openfoam": {
   "Hours": 24.35159543879222,
   "Cost": 0
  },
  "Test01": {
   "Hours": 0.0008333333333333334,
   "Cost": 0
  }
 },
 "Details": [
  {
   "CPU_Hours": 18.088123932489168,
   "Mem_GB_Hours": 29.090568608409377,
   "GPU_Hours": 18.088123932489168,
   "Runtime": 18.088123932489168,
   "App_Hours": 18.088123932489168,
   "JobId": "13212",
   "Queue": "local",
   "User": "amd_app",
   "App": "ICEPAK",
   "JobDescription": "ICEPAK",
   "JobName": "cubevnc",
   "Cluster": "aip",
   "CPU_Cost": 0.9044061966244588,
   "Mem_Cost": 0,
   "GPU_Cost": 0.9044061966244588,
   "App_Cost": 0,
   "StartDate": "2020/10/12",
   "Project": "default"
  },
  {
   "CPU_Hours": 0.023333333333333334,
   "Mem_GB_Hours": 0.0020278167724609377,
   "GPU_Hours": 0,
   "Runtime": 0.023333333333333334,
   "App_Hours": 0.023333333333333334,
   "JobId": "13262",
   "Queue": "q_x86_cn_sim",
   "User": "amd_app",
   "App": "Fluent",
   "JobDescription": "fluent_test",
   "JobName": "cubevnc",
   "Cluster": "aip",
   "CPU_Cost": 0.0011666666666666668,
   "Mem_Cost": 0,
   "GPU_Cost": 0,
   "App_Cost": 0.058333333333333334,
   "StartDate": "2020/10/14",
   "Project": "default"
  },
  {
   "CPU_Hours": 0.21333333333333335,
   "Mem_GB_Hours": 0.00032368977864583335,
   "GPU_Hours": 0,
   "Runtime": 0.013333333333333334,
   "App_Hours": 0.21333333333333335,
   "JobId": "14971",
   "Queue": "q_x86_vio_share",
   "User": "amd_app",
   "App": "ICESimulator",
   "JobName": "/home/export/online3/amd_share/anaconda/bin/python3 /home/export/online3/amd_app/wxy/cas2fe/generate.py /home/export/online3/amd_app/wxy/foamextend_project/icepak_test jixiang_nomerge.cas",
   "Cluster": "aip",
   "CPU_Cost": 0.10666666666666667,
   "Mem_Cost": 0,
   "GPU_Cost": 0,
   "App_Cost": 0,
   "StartDate": "2020/10/28",
   "Project": "default"
  },
  {
   "CPU_Hours": 24.343539883236662,
   "Mem_GB_Hours": 0.2804469697852124,
   "GPU_Hours": 0,
   "Runtime": 24.343539883236662,
   "App_Hours": 24.343539883236662,
   "JobId": "13849",
   "Queue": "q_x86_share",
   "User": "amd_app",
   "App": "Tanksimulator-Openfoam",
   "JobDescription": "test1",
   "JobName": "./fluidrun /home/export/base/nsccwuxi_amd/amd_app/WORK/mzy/test1 TODO 2 6",
   "Cluster": "aip",
   "CPU_Cost": 1.2171769941618333,
   "Mem_Cost": 0,
   "GPU_Cost": 0,
   "App_Cost": 0,
   "StartDate": "2020/10/20",
   "Project": "default"
  },
  {
   "CPU_Hours": 4.001546915132501,
   "Mem_GB_Hours": 0.9244438225592808,
   "GPU_Hours": 4.001546915132501,
   "Runtime": 4.001546915132501,
   "App_Hours": 4.001546915132501,
   "JobId": "13433",
   "Queue": "local",
   "User": "amd_app",
   "App": "ICEM-CFD",
   "JobDescription": "ICEM-CFD_test",
   "JobName": "cubevnc",
   "Cluster": "aip",
   "CPU_Cost": 0.20007734575662497,
   "Mem_Cost": 0,
   "GPU_Cost": 0.20007734575662497,
   "App_Cost": 14.005414202963749,
   "StartDate": "2020/10/16",
   "Project": "default"
  },
  {
   "CPU_Hours": 4.001279053686944,
   "Mem_GB_Hours": 3.2237181279172478,
   "GPU_Hours": 4.001279053686944,
   "Runtime": 4.001279053686944,
   "App_Hours": 4.001279053686944,
   "JobId": "13974",
   "Queue": "local",
   "User": "amd_app",
   "App": "ParaView",
   "JobDescription": "ParaView",
   "JobName": "cubevnc",
   "Cluster": "aip",
   "CPU_Cost": 2.000639526843472,
   "Mem_Cost": 0,
   "GPU_Cost": 2.000639526843472,
   "App_Cost": 0,
   "StartDate": "2020/10/21",
   "Project": "default"
  },
  {
   "CPU_Hours": 0,
   "Mem_GB_Hours": 0,
   "GPU_Hours": 0,
   "Runtime": 0,
   "App_Hours": 0,
   "JobId": "13169",
   "Queue": "",
   "User": "amd_app",
   "App": "Hypermesh",
   "JobDescription": "Hypermesh",
   "Cluster": "aip",
   "CPU_Cost": 0,
   "Mem_Cost": 0,
   "GPU_Cost": 0,
   "App_Cost": 0,
   "StartDate": "2020/10/10"
  },
  {
   "CPU_Hours": 0.008333333333333333,
   "Mem_GB_Hours": 0.00017306009928385417,
   "GPU_Hours": 0,
   "Runtime": 0.008333333333333333,
   "App_Hours": 0.008333333333333333,
   "JobId": "13252",
   "Queue": "q_x86_share",
   "User": "amd_app",
   "App": "CFX",
   "JobDescription": "Batch-CFX",
   "JobName": "/home/export/online3/amd_share/shangruan/bin/cfxyaml /home/export/base/nsccwuxi_amd/amd_app/WORK/Zhouhl/Project/SimGO/CFX/StaticMixer.def /home/export/base/nsccwuxi_amd/amd_app/WORK/Zhouhl/Project/SimGO/CFX/StaticMixer_2_001.res no",
   "Cluster": "aip",
   "CPU_Cost": 0.0004166666666666667,
   "Mem_Cost": 0,
   "GPU_Cost": 0,
   "App_Cost": 0,
   "StartDate": "2020/10/13",
   "Project": "default"
  },
  {
   "CPU_Hours": 0.08695303697194444,
   "Mem_GB_Hours": 0.03123729292684454,
   "GPU_Hours": 0.08695303697194444,
   "Runtime": 0.08695303697194444,
   "App_Hours": 0.08695303697194444,
   "JobId": "13267",
   "Queue": "local",
   "User": "amd_app",
   "App": "PointWise",
   "JobDescription": "PointWise",
   "JobName": "cubevnc",
   "Cluster": "aip",
   "CPU_Cost": 0.004347651848597223,
   "Mem_Cost": 0,
   "GPU_Cost": 0.004347651848597223,
   "App_Cost": 0.30433562940180553,
   "StartDate": "2020/10/14",
   "Project": "default"
  },
  {
   "CPU_Hours": 0.03333333333333333,
   "Mem_GB_Hours": 0.00004138946533203125,
   "GPU_Hours": 0,
   "Runtime": 0.001388888888888889,
   "App_Hours": 0.03333333333333333,
   "JobId": "13108",
   "Queue": "q_x86_cn_sim",
   "User": "amd_app",
   "App": "Fluent",
   "JobDescription": "fluent_test",
   "JobName": "cubevnc",
   "Cluster": "aip",
   "CPU_Cost": 0.0016666666666666668,
   "Mem_Cost": 0,
   "GPU_Cost": 0,
   "App_Cost": 0.08333333333333333,
   "StartDate": "2020/10/08",
   "Project": "default"
  },
  {
   "CPU_Hours": 191.5773493384917,
   "Mem_GB_Hours": 1.4762773491160013,
   "GPU_Hours": 0,
   "Runtime": 19.15773493384916,
   "App_Hours": 191.5773493384917,
   "JobId": "14098",
   "Queue": "q_x86_cn_sim",
   "User": "amd_app",
   "App": "AnsysAPDL",
   "JobDescription": "AnsysAPDL",
   "JobName": "cubevnc",
   "Cluster": "aip",
   "CPU_Cost": 95.78867466924585,
   "Mem_Cost": 0,
   "GPU_Cost": 0,
   "App_Cost": 0,
   "StartDate": "2020/10/22",
   "Project": "default"
  },
  {
   "CPU_Hours": 4.001821048226389,
   "Mem_GB_Hours": 1.9716886109851248,
   "GPU_Hours": 4.001821048226389,
   "Runtime": 4.001821048226389,
   "App_Hours": 4.001821048226389,
   "JobId": "13276",
   "Queue": "local",
   "User": "amd_app",
   "App": "ParaView",
   "JobDescription": "ParaView",
   "JobName": "cubevnc",
   "Cluster": "aip",
   "CPU_Cost": 0.20009105241131944,
   "Mem_Cost": 0,
   "GPU_Cost": 0.20009105241131944,
   "App_Cost": 1.400637366879236,
   "StartDate": "2020/10/15",
   "Project": "default"
  },
  {
   "CPU_Hours": 0.009722222222222222,
   "Mem_GB_Hours": 0.00022230148315429687,
   "GPU_Hours": 0,
   "Runtime": 0.009722222222222222,
   "App_Hours": 0.009722222222222222,
   "JobId": "14116",
   "Queue": "q_x86_share",
   "User": "amd_app",
   "App": "Tanksim",
   "JobDescription": "testsave",
   "JobName": "./fluidrun /home/export/base/nsccwuxi_amd/amd_app/online3/wxy/testsave TODO 2 2",
   "Cluster": "aip",
   "CPU_Cost": 0.004861111111111111,
   "Mem_Cost": 0,
   "GPU_Cost": 0,
   "App_Cost": 0,
   "StartDate": "2020/10/22",
   "Project": "default"
  },
  {
   "CPU_Hours": 0,
   "Mem_GB_Hours": 0,
   "GPU_Hours": 0,
   "Runtime": 0,
   "App_Hours": 0,
   "JobId": "13225",
   "Queue": "q_x86_share",
   "User": "amd_app",
   "App": "CFX",
   "JobDescription": "Batch-CFX",
   "JobName": "/home/export/online3/amd_share/shangruan/bin/cfxyaml /home/export/base/nsccwuxi_amd/amd_app/WORK/Zhouhl/Project/SimGO/CFX/StaticMixer.def /home/export/base/nsccwuxi_amd/amd_app/WORK/Zhouhl/Project/SimGO/CFX/StaticMixer_2_001.res no",
   "Cluster": "aip",
   "CPU_Cost": 0,
   "Mem_Cost": 0,
   "GPU_Cost": 0,
   "App_Cost": 0,
   "StartDate": "2020/10/13",
   "Project": "default"
  },
  {
   "CPU_Hours": 0.50687953896,
   "Mem_GB_Hours": 0.0020148834212383652,
   "GPU_Hours": 0,
   "Runtime": 0.02111998079,
   "App_Hours": 0.50687953896,
   "JobId": "13208",
   "Queue": "q_x86_cn_sim",
   "User": "amd_app",
   "App": "Fluent",
   "JobDescription": "Fluent",
   "JobName": "cubevnc",
   "Cluster": "aip",
   "CPU_Cost": 0.025343976948000002,
   "Mem_Cost": 0,
   "GPU_Cost": 0,
   "App_Cost": 1.2671988474,
   "StartDate": "2020/10/12",
   "Project": "default"
  },
  {
   "CPU_Hours": 0.017511347339444445,
   "Mem_GB_Hours": 0.0015135654755292214,
   "GPU_Hours": 0,
   "Runtime": 0.017511347339444445,
   "App_Hours": 0.017511347339444445,
   "JobId": "13264",
   "Queue": "q_x86_cn_sim",
   "User": "amd_app",
   "App": "Fluent",
   "JobDescription": "Fluent",
   "JobName": "cubevnc",
   "Cluster": "aip",
   "CPU_Cost": 0.0008755673669722222,
   "Mem_Cost": 0,
   "GPU_Cost": 0,
   "App_Cost": 0.04377836834861111,
   "StartDate": "2020/10/14",
   "Project": "default"
  },
  {
   "CPU_Hours": 0.012222222222222223,
   "Mem_GB_Hours": 0.0002536349826388889,
   "GPU_Hours": 0,
   "Runtime": 0.012222222222222223,
   "App_Hours": 0.012222222222222223,
   "JobId": "13202",
   "Queue": "q_x86_share",
   "User": "amd_app",
   "App": "STARCCM+",
   "JobDescription": "Batch-STARCCM+",
   "JobName": "/home/export/online3/amd_share/shangruan/bin/starccmyaml /home/export/base/nsccwuxi_amd/amd_app/WORK/test/test_copy_10.sim",
   "Cluster": "aip",
   "CPU_Cost": 0.0006111111111111112,
   "Mem_Cost": 0,
   "GPU_Cost": 0,
   "App_Cost": 0.061111111111111116,
   "StartDate": "2020/10/12",
   "Project": "default"
  },
  {
   "CPU_Hours": 0.008333333333333333,
   "Mem_GB_Hours": 0.00017108917236328126,
   "GPU_Hours": 0,
   "Runtime": 0.008333333333333333,
   "App_Hours": 0.008333333333333333,
   "JobId": "14114",
   "Queue": "q_x86_share",
   "User": "amd_app",
   "App": "Tanksim",
   "JobDescription": "testsave",
   "JobName": "./fluidrun /home/export/base/nsccwuxi_amd/amd_app/online3/wxy/testsave TODO 2 2",
   "Cluster": "aip",
   "CPU_Cost": 0.004166666666666667,
   "Mem_Cost": 0,
   "GPU_Cost": 0,
   "App_Cost": 0,
   "StartDate": "2020/10/22",
   "Project": "default"
  },
  {
   "CPU_Hours": 0,
   "Mem_GB_Hours": 0,
   "GPU_Hours": 0,
   "Runtime": 0,
   "App_Hours": 0,
   "JobId": "13388",
   "Queue": "local",
   "User": "amd_app",
   "JobName": "h",
   "Cluster": "aip",
   "CPU_Cost": 0,
   "Mem_Cost": 0,
   "GPU_Cost": 0,
   "App_Cost": 0,
   "StartDate": "2020/10/16",
   "Project": "default"
  },
  {
   "CPU_Hours": 0.015277777777777777,
   "Mem_GB_Hours": 0.00031686888800727,
   "GPU_Hours": 0,
   "Runtime": 0.015277777777777777,
   "App_Hours": 0.015277777777777777,
   "JobId": "13200",
   "Queue": "q_x86_share",
   "User": "amd_app",
   "App": "STARCCM+",
   "JobDescription": "Batch-STARCCM+",
   "JobName": "/home/export/online3/amd_share/shangruan/bin/starccmyaml /home/export/base/nsccwuxi_amd/amd_app/WORK/test/test_copy_2.sim",
   "Cluster": "aip",
   "CPU_Cost": 0.0007638888888888889,
   "Mem_Cost": 0,
   "GPU_Cost": 0,
   "App_Cost": 0.07638888888888888,
   "StartDate": "2020/10/12",
   "Project": "default"
  },
  {
   "CPU_Hours": 4.001836063690833,
   "Mem_GB_Hours": 2.0280794302184404,
   "GPU_Hours": 4.001836063690833,
   "Runtime": 4.001836063690833,
   "App_Hours": 4.001836063690833,
   "JobId": "13724",
   "Queue": "local",
   "User": "amd_app",
   "App": "Abaqus",
   "JobDescription": "Abaqus",
   "JobName": "cubevnc",
   "Cluster": "aip",
   "CPU_Cost": 0.20009180318454167,
   "Mem_Cost": 0,
   "GPU_Cost": 0.20009180318454167,
   "App_Cost": 10.004590159227082,
   "StartDate": "2020/10/19",
   "Project": "default"
  },
  {
   "CPU_Hours": 0.08027777777777778,
   "Mem_GB_Hours": 0.07595985836452908,
   "GPU_Hours": 0,
   "Runtime": 0.08027777777777778,
   "App_Hours": 0.08027777777777778,
   "JobId": "13835",
   "Queue": "q_x86_share",
   "User": "amd_app",
   "App": "Tanksimulator-MeshGenerate",
   "JobDescription": "Study1",
   "JobName": "./fluidprepare /home/export/base/nsccwuxi_amd/amd_app/WORK/mzy/Study1",
   "Cluster": "aip",
   "CPU_Cost": 0.004013888888888889,
   "Mem_Cost": 0,
   "GPU_Cost": 0,
   "App_Cost": 0,
   "StartDate": "2020/10/20",
   "Project": "default"
  },
  {
   "CPU_Hours": 0.011944444444444445,
   "Mem_GB_Hours": 0.011367872026231554,
   "GPU_Hours": 0.011944444444444445,
   "Runtime": 0.011944444444444445,
   "App_Hours": 0.011944444444444445,
   "JobId": "13189",
   "Queue": "local",
   "User": "amd_app",
   "App": "Hypermesh",
   "JobDescription": "Hypermesh",
   "JobName": "cubevnc",
   "Cluster": "aip",
   "CPU_Cost": 0.0005972222222222223,
   "Mem_Cost": 0,
   "GPU_Cost": 0.0005972222222222223,
   "App_Cost": 0,
   "StartDate": "2020/10/12",
   "Project": "default"
  },
  {
   "CPU_Hours": 0.0225,
   "Mem_GB_Hours": 0.010100727081298827,
   "GPU_Hours": 0.0225,
   "Runtime": 0.0225,
   "App_Hours": 0.0225,
   "JobId": "14273",
   "Queue": "local",
   "User": "amd_app",
   "App": "FluentMeshing",
   "JobDescription": "FluentMeshing",
   "JobName": "cubevnc",
   "Cluster": "aip",
   "CPU_Cost": 0.01125,
   "Mem_Cost": 0,
   "GPU_Cost": 0.01125,
   "App_Cost": 0,
   "StartDate": "2020/10/23",
   "Project": "default"
  },
  {
   "CPU_Hours": 0.8075255019297223,
   "Mem_GB_Hours": 0.00747675273796548,
   "GPU_Hours": 0,
   "Runtime": 0.8075255019297223,
   "App_Hours": 0.8075255019297223,
   "JobId": "13182",
   "Queue": "q_x86_share",
   "User": "amd_app",
   "App": "STARCCM+",
   "JobDescription": "Batch-STARCCM+",
   "JobName": "/home/export/online3/amd_share/shangruan/bin/starccmyaml /home/export/base/nsccwuxi_amd/amd_app/WORK/Zhouhl/Project/SimGO/STARCCM/openWaterPropeller_start_200.sim",
   "Cluster": "aip",
   "CPU_Cost": 0.040376275096486114,
   "Mem_Cost": 0,
   "GPU_Cost": 0,
   "App_Cost": 4.037627509648612,
   "StartDate": "2020/10/11",
   "Project": "default"
  },
  {
   "CPU_Hours": 4.001272123086389,
   "Mem_GB_Hours": 2.1413512348687385,
   "GPU_Hours": 4.001272123086389,
   "Runtime": 4.001272123086389,
   "App_Hours": 4.001272123086389,
   "JobId": "14965",
   "Queue": "local",
   "User": "amd_app",
   "App": "ParaView",
   "JobDescription": "ParaView",
   "JobName": "cubevnc",
   "Cluster": "aip",
   "CPU_Cost": 2.0006360615431946,
   "Mem_Cost": 0,
   "GPU_Cost": 2.0006360615431946,
   "App_Cost": 0,
   "StartDate": "2020/10/28",
   "Project": "default"
  },
  {
   "CPU_Hours": 40.94627847903863,
   "Mem_GB_Hours": 3.974114904134089,
   "GPU_Hours": 0,
   "Runtime": 40.94627847903863,
   "App_Hours": 40.94627847903863,
   "JobId": "13268",
   "Queue": "q_x86_cn_sim",
   "User": "amd_app",
   "App": "Fluent",
   "JobDescription": "Fluent",
   "JobName": "cubevnc",
   "Cluster": "aip",
   "CPU_Cost": 2.04731392395193,
   "Mem_Cost": 0,
   "GPU_Cost": 0,
   "App_Cost": 102.36569619759653,
   "StartDate": "2020/10/14",
   "Project": "default"
  },
  {
   "CPU_Hours": 5.200207621893332,
   "Mem_GB_Hours": 0.01685496472578472,
   "GPU_Hours": 0,
   "Runtime": 0.21667531757888886,
   "App_Hours": 5.200207621893332,
   "JobId": "13126",
   "Queue": "q_x86_cn_sim",
   "User": "amd_app",
   "App": "Fluent",
   "JobDescription": "Fluent_test",
   "JobName": "cubevnc",
   "Cluster": "aip",
   "CPU_Cost": 0.2600103810946666,
   "Mem_Cost": 0,
   "GPU_Cost": 0,
   "App_Cost": 13.000519054733331,
   "StartDate": "2020/10/09",
   "Project": "default"
  },
  {
   "CPU_Hours": 440.50260422629316,
   "Mem_GB_Hours": 1.6295357411200226,
   "GPU_Hours": 0,
   "Runtime": 18.354275176095545,
   "App_Hours": 440.50260422629316,
   "JobId": "13238",
   "Queue": "q_x86_cn_sim",
   "User": "amd_app",
   "App": "AnsysAPDL",
   "JobDescription": "AnsysAPDL",
   "JobName": "cubevnc",
   "Cluster": "aip",
   "CPU_Cost": 22.025130211314668,
   "Mem_Cost": 0,
   "GPU_Cost": 0,
   "App_Cost": 0,
   "StartDate": "2020/10/13",
   "Project": "default"
  },
  {
   "CPU_Hours": 0,
   "Mem_GB_Hours": 0,
   "GPU_Hours": 0,
   "Runtime": 0,
   "App_Hours": 0,
   "JobId": "13230",
   "Queue": "q_x86_share",
   "User": "amd_app",
   "App": "CFX",
   "JobDescription": "Batch-CFX",
   "JobName": "/home/export/online3/amd_share/shangruan/bin/cfxyaml /home/export/base/nsccwuxi_amd/amd_app/WORK/Zhouhl/Project/SimGO/CFX/StaticMixer.def /home/export/base/nsccwuxi_amd/amd_app/WORK/Zhouhl/Project/SimGO/CFX/StaticMixer_2_001.res no",
   "Cluster": "aip",
   "CPU_Cost": 0,
   "Mem_Cost": 0,
   "GPU_Cost": 0,
   "App_Cost": 0,
   "StartDate": "2020/10/13",
   "Project": "default"
  },
  {
   "CPU_Hours": 4.001857114745,
   "Mem_GB_Hours": 1.1183121833713432,
   "GPU_Hours": 4.001857114745,
   "Runtime": 4.001857114745,
   "App_Hours": 4.001857114745,
   "JobId": "14138",
   "Queue": "local",
   "User": "amd_app",
   "App": "LSPrePost",
   "JobDescription": "LSPrePost",
   "JobName": "cubevnc",
   "Cluster": "aip",
   "CPU_Cost": 2.0009285573725,
   "Mem_Cost": 0,
   "GPU_Cost": 2.0009285573725,
   "App_Cost": 0,
   "StartDate": "2020/10/22",
   "Project": "default"
  },
  {
   "CPU_Hours": 4.001826195296111,
   "Mem_GB_Hours": 2.3808869656997933,
   "GPU_Hours": 4.001826195296111,
   "Runtime": 4.001826195296111,
   "App_Hours": 4.001826195296111,
   "JobId": "13416",
   "Queue": "local",
   "User": "amd_app",
   "App": "ParaView",
   "JobDescription": "ParaView",
   "JobName": "cubevnc",
   "Cluster": "aip",
   "CPU_Cost": 0.2000913097648056,
   "Mem_Cost": 0,
   "GPU_Cost": 0.2000913097648056,
   "App_Cost": 1.400639168353639,
   "StartDate": "2020/10/16",
   "Project": "default"
  },
  {
   "CPU_Hours": 0.012777777777777779,
   "Mem_GB_Hours": 0.00026516384548611114,
   "GPU_Hours": 0,
   "Runtime": 0.012777777777777779,
   "App_Hours": 0.012777777777777779,
   "JobId": "13250",
   "Queue": "q_x86_share",
   "User": "amd_app",
   "App": "CFX",
   "JobDescription": "Batch-CFX",
   "JobName": "/home/export/online3/amd_share/shangruan/bin/cfxyaml /home/export/base/nsccwuxi_amd/amd_app/WORK/Zhouhl/Project/SimGO/CFX/StaticMixer.def /home/export/base/nsccwuxi_amd/amd_app/WORK/Zhouhl/Project/SimGO/CFX/StaticMixer_2_001.res yes",
   "Cluster": "aip",
   "CPU_Cost": 0.0006388888888888889,
   "Mem_Cost": 0,
   "GPU_Cost": 0,
   "App_Cost": 0,
   "StartDate": "2020/10/13",
   "Project": "default"
  },
  {
   "CPU_Hours": 4.001831077523612,
   "Mem_GB_Hours": 1.6282049287290423,
   "GPU_Hours": 4.001831077523612,
   "Runtime": 4.001831077523612,
   "App_Hours": 4.001831077523612,
   "JobId": "14994",
   "Queue": "local",
   "User": "amd_app",
   "App": "ParaView",
   "JobDescription": "ParaView",
   "JobName": "cubevnc",
   "Cluster": "aip",
   "CPU_Cost": 2.000915538761806,
   "Mem_Cost": 0,
   "GPU_Cost": 2.000915538761806,
   "App_Cost": 0,
   "StartDate": "2020/10/28",
   "Project": "default"
  },
  {
   "CPU_Hours": 4.001824899958611,
   "Mem_GB_Hours": 3.0122741678461544,
   "GPU_Hours": 4.001824899958611,
   "Runtime": 4.001824899958611,
   "App_Hours": 4.001824899958611,
   "JobId": "13293",
   "Queue": "local",
   "User": "amd_app",
   "App": "ParaView",
   "JobDescription": "ParaView",
   "JobName": "cubevnc",
   "Cluster": "aip",
   "CPU_Cost": 0.20009124499793055,
   "Mem_Cost": 0,
   "GPU_Cost": 0.20009124499793055,
   "App_Cost": 1.4006387149855137,
   "StartDate": "2020/10/15",
   "Project": "default"
  },
  {
   "CPU_Hours": 0.22,
   "Mem_GB_Hours": 0.004275054931640625,
   "GPU_Hours": 0,
   "Runtime": 0.055,
   "App_Hours": 0.22,
   "JobId": "13120",
   "Queue": "q_x86_cn_sim",
   "User": "amd_app",
   "App": "Fluent",
   "JobDescription": "fluent_test",
   "JobName": "cubevnc",
   "Cluster": "aip",
   "CPU_Cost": 0.011000000000000001,
   "Mem_Cost": 0,
   "GPU_Cost": 0,
   "App_Cost": 0.55,
   "StartDate": "2020/10/08",
   "Project": "default"
  },
  {
   "CPU_Hours": 0.5933333333333333,
   "Mem_GB_Hours": 0.0018970955742730034,
   "GPU_Hours": 0,
   "Runtime": 0.024722222222222222,
   "App_Hours": 0.5933333333333333,
   "JobId": "13115",
   "Queue": "q_x86_cn_sim",
   "User": "amd_app",
   "App": "Fluent",
   "JobDescription": "fluent_test",
   "JobName": "cubevnc",
   "Cluster": "aip",
   "CPU_Cost": 0.029666666666666664,
   "Mem_Cost": 0,
   "GPU_Cost": 0,
   "App_Cost": 1.4833333333333332,
   "StartDate": "2020/10/08",
   "Project": "default"
  },
  {
   "CPU_Hours": 0.030833333333333334,
   "Mem_GB_Hours": 0.015183544158935547,
   "GPU_Hours": 0.030833333333333334,
   "Runtime": 0.030833333333333334,
   "App_Hours": 0.030833333333333334,
   "JobId": "13117",
   "Queue": "local",
   "User": "amd_app",
   "App": "FluentMeshing",
   "JobDescription": "fluent_test",
   "JobName": "cubevnc",
   "Cluster": "aip",
   "CPU_Cost": 0.0015416666666666669,
   "Mem_Cost": 0,
   "GPU_Cost": 0.0015416666666666669,
   "App_Cost": 0,
   "StartDate": "2020/10/08",
   "Project": "default"
  },
  {
   "CPU_Hours": 0.013333333333333334,
   "Mem_GB_Hours": 0.0002765909830729167,
   "GPU_Hours": 0,
   "Runtime": 0.013333333333333334,
   "App_Hours": 0.013333333333333334,
   "JobId": "13198",
   "Queue": "q_x86_share",
   "User": "amd_app",
   "App": "STARCCM+",
   "JobDescription": "Batch-STARCCM+",
   "JobName": "/home/export/online3/amd_share/shangruan/bin/starccmyaml /home/export/base/nsccwuxi_amd/amd_app/WORK/test/test_copy_4.sim",
   "Cluster": "aip",
   "CPU_Cost": 0.0006666666666666668,
   "Mem_Cost": 0,
   "GPU_Cost": 0,
   "App_Cost": 0.06666666666666667,
   "StartDate": "2020/10/12",
   "Project": "default"
  },
  {
   "CPU_Hours": 1.94,
   "Mem_GB_Hours": 0.00923892339070638,
   "GPU_Hours": 0,
   "Runtime": 0.08083333333333333,
   "App_Hours": 1.94,
   "JobId": "13125",
   "Queue": "q_x86_cn_sim",
   "User": "amd_app",
   "App": "Fluent",
   "JobDescription": "Fluent_test",
   "JobName": "cubevnc",
   "Cluster": "aip",
   "CPU_Cost": 0.097,
   "Mem_Cost": 0,
   "GPU_Cost": 0,
   "App_Cost": 4.85,
   "StartDate": "2020/10/09",
   "Project": "default"
  },
  {
   "CPU_Hours": 0.0019444444444444444,
   "Mem_GB_Hours": 0.00004407458835177951,
   "GPU_Hours": 0,
   "Runtime": 0.0019444444444444444,
   "App_Hours": 0.0019444444444444444,
   "JobId": "14153",
   "Queue": "q_x86_cn_sim",
   "User": "amd_app",
   "App": "ICESimulator",
   "JobName": "/home/export/online3/amd_share/anaconda/bin/python3 /home/export/online3/amd_app/wxy/cas2fe/generate.py /home/export/online3/amd_app/wxy/foamextend_project/icepak_test jixiang_nomerge.cas",
   "Cluster": "aip",
   "CPU_Cost": 0.0009722222222222222,
   "Mem_Cost": 0,
   "GPU_Cost": 0,
   "App_Cost": 0,
   "StartDate": "2020/10/22",
   "Project": "default"
  },
  {
   "CPU_Hours": 0.3063992552502778,
   "Mem_GB_Hours": 0.13797476461409625,
   "GPU_Hours": 0.3063992552502778,
   "Runtime": 0.3063992552502778,
   "App_Hours": 0.3063992552502778,
   "JobId": "14768",
   "Queue": "local",
   "User": "amd_app",
   "App": "FluentMeshing",
   "JobDescription": "FluentMeshing",
   "JobName": "cubevnc",
   "Cluster": "aip",
   "CPU_Cost": 0.1531996276251389,
   "Mem_Cost": 0,
   "GPU_Cost": 0.1531996276251389,
   "App_Cost": 0,
   "StartDate": "2020/10/27",
   "Project": "default"
  },
  {
   "CPU_Hours": 0.14584468067277775,
   "Mem_GB_Hours": 0.01262645520138983,
   "GPU_Hours": 0,
   "Runtime": 0.14584468067277775,
   "App_Hours": 0.14584468067277775,
   "JobId": "13261",
   "Queue": "q_x86_cn_sim",
   "User": "amd_app",
   "App": "Fluent",
   "JobDescription": "Fluent",
   "JobName": "cubevnc",
   "Cluster": "aip",
   "CPU_Cost": 0.007292234033638889,
   "Mem_Cost": 0,
   "GPU_Cost": 0,
   "App_Cost": 0.3646117016819444,
   "StartDate": "2020/10/14",
   "Project": "default"
  },
  {
   "CPU_Hours": 0.08361111111111111,
   "Mem_GB_Hours": 0.027366321351793076,
   "GPU_Hours": 0.08361111111111111,
   "Runtime": 0.08361111111111111,
   "App_Hours": 0.08361111111111111,
   "JobId": "13618",
   "Queue": "local",
   "User": "amd_app",
   "App": "PointWise",
   "JobDescription": "PointWise",
   "JobName": "cubevnc",
   "Cluster": "aip",
   "CPU_Cost": 0.004180555555555555,
   "Mem_Cost": 0,
   "GPU_Cost": 0.004180555555555555,
   "App_Cost": 0.2926388888888889,
   "StartDate": "2020/10/18",
   "Project": "default"
  },
  {
   "CPU_Hours": 10.626878911853334,
   "Mem_GB_Hours": 0.03607973865768118,
   "GPU_Hours": 0,
   "Runtime": 0.44278662132722224,
   "App_Hours": 10.626878911853334,
   "JobId": "13177",
   "Queue": "q_x86_cn_sim",
   "User": "amd_app",
   "App": "AnsysAPDL",
   "JobDescription": "test",
   "JobName": "cubevnc",
   "Cluster": "aip",
   "CPU_Cost": 0.5313439455926667,
   "Mem_Cost": 0,
   "GPU_Cost": 0,
   "App_Cost": 0,
   "StartDate": "2020/10/10",
   "Project": "default"
  },
  {
   "CPU_Hours": 77.86962239754,
   "Mem_GB_Hours": 0.32403638434965365,
   "GPU_Hours": 0,
   "Runtime": 3.2445675998975,
   "App_Hours": 77.86962239754,
   "JobId": "13166",
   "Queue": "q_x86_cn_sim",
   "User": "amd_app",
   "App": "Fluent",
   "JobDescription": "Fluent_test",
   "JobName": "cubevnc",
   "Cluster": "aip",
   "CPU_Cost": 3.8934811198770007,
   "Mem_Cost": 0,
   "GPU_Cost": 0,
   "App_Cost": 194.67405599385,
   "StartDate": "2020/10/10",
   "Project": "default"
  },
  {
   "CPU_Hours": 161.16541988337522,
   "Mem_GB_Hours": 1803.9262752624447,
   "GPU_Hours": 161.16541988337522,
   "Runtime": 161.16541988337522,
   "App_Hours": 161.16541988337522,
   "JobId": "13058",
   "Queue": "local",
   "User": "amd_app",
   "App": "ParaView",
   "JobDescription": "ParaView",
   "JobName": "cubevnc",
   "Cluster": "aip",
   "CPU_Cost": 8.058270994168765,
   "Mem_Cost": 0,
   "GPU_Cost": 8.058270994168765,
   "App_Cost": 56.407896959181365,
   "StartDate": "2020/09/29",
   "Project": "default"
  },
  {
   "CPU_Hours": 4.001855735913333,
   "Mem_GB_Hours": 0.8757457652153565,
   "GPU_Hours": 4.001855735913333,
   "Runtime": 4.001855735913333,
   "App_Hours": 4.001855735913333,
   "JobId": "14131",
   "Queue": "local",
   "User": "amd_app",
   "App": "TankSim",
   "JobDescription": "TankSim",
   "JobName": "cubevnc",
   "Cluster": "aip",
   "CPU_Cost": 2.0009278679566664,
   "Mem_Cost": 0,
   "GPU_Cost": 2.0009278679566664,
   "App_Cost": 0,
   "StartDate": "2020/10/22",
   "Project": "default"
  },
  {
   "CPU_Hours": 0.3455660810186111,
   "Mem_GB_Hours": 0.19462421063053878,
   "GPU_Hours": 0.3455660810186111,
   "Runtime": 0.3455660810186111,
   "App_Hours": 0.3455660810186111,
   "JobId": "13975",
   "Queue": "local",
   "User": "amd_app",
   "App": "ParaView",
   "JobDescription": "ParaView",
   "JobName": "cubevnc",
   "Cluster": "aip",
   "CPU_Cost": 0.17278304050930554,
   "Mem_Cost": 0,
   "GPU_Cost": 0.17278304050930554,
   "App_Cost": 0,
   "StartDate": "2020/10/21",
   "Project": "default"
  },
  {
   "CPU_Hours": 0,
   "Mem_GB_Hours": 0,
   "GPU_Hours": 0,
   "Runtime": 0,
   "App_Hours": 0,
   "JobId": "13173",
   "Queue": "",
   "User": "amd_app",
   "App": "Hypermesh",
   "JobDescription": "test",
   "Cluster": "aip",
   "CPU_Cost": 0,
   "Mem_Cost": 0,
   "GPU_Cost": 0,
   "App_Cost": 0,
   "StartDate": "2020/10/10"
  },
  {
   "CPU_Hours": 1.32688711924,
   "Mem_GB_Hours": 0.00434835553301154,
   "GPU_Hours": 0,
   "Runtime": 0.055286963301666665,
   "App_Hours": 1.32688711924,
   "JobId": "13175",
   "Queue": "q_x86_cn_sim",
   "User": "amd_app",
   "App": "AnsysAPDL",
   "JobDescription": "test",
   "JobName": "cubevnc",
   "Cluster": "aip",
   "CPU_Cost": 0.066344355962,
   "Mem_Cost": 0,
   "GPU_Cost": 0,
   "App_Cost": 0,
   "StartDate": "2020/10/10",
   "Project": "default"
  },
  {
   "CPU_Hours": 0.04777777777777778,
   "Mem_GB_Hours": 0.027534590827094186,
   "GPU_Hours": 0,
   "Runtime": 0.04777777777777778,
   "App_Hours": 0.04777777777777778,
   "JobId": "14108",
   "Queue": "q_x86_share",
   "User": "amd_app",
   "App": "Tanksim",
   "JobDescription": "testsave",
   "JobName": "./fluidprepare /home/export/base/nsccwuxi_amd/amd_app/online3/wxy/testsave",
   "Cluster": "aip",
   "CPU_Cost": 0.02388888888888889,
   "Mem_Cost": 0,
   "GPU_Cost": 0,
   "App_Cost": 0,
   "StartDate": "2020/10/22",
   "Project": "default"
  },
  {
   "CPU_Hours": 0.07,
   "Mem_GB_Hours": 0.013425140380859376,
   "GPU_Hours": 0.07,
   "Runtime": 0.07,
   "App_Hours": 0.07,
   "JobId": "13824",
   "Queue": "local",
   "User": "amd_app",
   "App": "TankSim",
   "JobDescription": "TankSim",
   "JobName": "cubevnc",
   "Cluster": "aip",
   "CPU_Cost": 0.0035000000000000005,
   "Mem_Cost": 0,
   "GPU_Cost": 0.0035000000000000005,
   "App_Cost": 0.049,
   "StartDate": "2020/10/20",
   "Project": "default"
  },
  {
   "CPU_Hours": 0.043333333333333335,
   "Mem_GB_Hours": 0.00013581064012315537,
   "GPU_Hours": 0,
   "Runtime": 0.003611111111111111,
   "App_Hours": 0.043333333333333335,
   "JobId": "13197",
   "Queue": "q_x86_share",
   "User": "amd_app",
   "App": "ICESimulator",
   "JobName": "/home/export/online3/amd_share/anaconda/bin/python3 /home/export/online3/amd_app/wxy/cas2fe/generate.py /home/export/online3/amd_app/wxy/foamextend_project/icepak_test jixiang_nomerge.cas",
   "Cluster": "aip",
   "CPU_Cost": 0.002166666666666667,
   "Mem_Cost": 0,
   "GPU_Cost": 0,
   "App_Cost": 0,
   "StartDate": "2020/10/12",
   "Project": "default"
  },
  {
   "CPU_Hours": 0.38666666666666666,
   "Mem_GB_Hours": 0.0005734740363226997,
   "GPU_Hours": 0,
   "Runtime": 0.008055555555555555,
   "App_Hours": 0.38666666666666666,
   "JobId": "14073",
   "Queue": "q_x86_cn_sim",
   "User": "amd_app",
   "App": "AnsysAPDL",
   "JobDescription": "AnsysAPDL",
   "JobName": "cubevnc",
   "Cluster": "aip",
   "CPU_Cost": 0.19333333333333333,
   "Mem_Cost": 0,
   "GPU_Cost": 0,
   "App_Cost": 0,
   "StartDate": "2020/10/22",
   "Project": "default"
  },
  {
   "CPU_Hours": 0.05,
   "Mem_GB_Hours": 0.00038623809814453125,
   "GPU_Hours": 0,
   "Runtime": 0.005,
   "App_Hours": 0.05,
   "JobId": "14082",
   "Queue": "q_x86_expr",
   "User": "amd_app",
   "App": "AnsysAPDL",
   "JobDescription": "AnsysAPDL",
   "JobName": "cubevnc",
   "Cluster": "aip",
   "CPU_Cost": 0.025,
   "Mem_Cost": 0,
   "GPU_Cost": 0,
   "App_Cost": 0,
   "StartDate": "2020/10/22",
   "Project": "default"
  },
  {
   "CPU_Hours": 0.006111111111111111,
   "Mem_GB_Hours": 0.000033091439141167534,
   "GPU_Hours": 0,
   "Runtime": 0.0030555555555555557,
   "App_Hours": 0.006111111111111111,
   "JobId": "13404",
   "Queue": "q_x86_vio_share",
   "User": "amd_app",
   "App": "LS-DYNA",
   "JobDescription": "implicit_control_cards_R9.k",
   "JobName": "/home/export/base/nsccwuxi_amd/amd_app/online3/dzj/dzj/ls-dynatest/car01/implicit_control_cards_R9.k",
   "Cluster": "aip",
   "CPU_Cost": 0.0003055555555555556,
   "Mem_Cost": 0,
   "GPU_Cost": 0,
   "App_Cost": 0.030555555555555558,
   "StartDate": "2020/10/16",
   "Project": "default"
  },
  {
   "CPU_Hours": 0.16667536765361113,
   "Mem_GB_Hours": 0.03298847553851409,
   "GPU_Hours": 0.16667536765361113,
   "Runtime": 0.16667536765361113,
   "App_Hours": 0.16667536765361113,
   "JobId": "13844",
   "Queue": "local",
   "User": "amd_app",
   "App": "TankSim",
   "JobDescription": "TankSim",
   "JobName": "cubevnc",
   "Cluster": "aip",
   "CPU_Cost": 0.008333768382680556,
   "Mem_Cost": 0,
   "GPU_Cost": 0.008333768382680556,
   "App_Cost": 0.11667275735752777,
   "StartDate": "2020/10/20",
   "Project": "default"
  },
  {
   "CPU_Hours": 2.119550737986111,
   "Mem_GB_Hours": 0.018164935050353423,
   "GPU_Hours": 0,
   "Runtime": 0.21195507379861112,
   "App_Hours": 2.119550737986111,
   "JobId": "14083",
   "Queue": "q_x86_share",
   "User": "amd_app",
   "App": "AnsysAPDL",
   "JobDescription": "ANSYS",
   "JobName": "cubevnc",
   "Cluster": "aip",
   "CPU_Cost": 1.0597753689930556,
   "Mem_Cost": 0,
   "GPU_Cost": 0,
   "App_Cost": 0,
   "StartDate": "2020/10/22",
   "Project": "default"
  },
  {
   "CPU_Hours": 4.001554187869167,
   "Mem_GB_Hours": 0.7487804226478885,
   "GPU_Hours": 4.001554187869167,
   "Runtime": 4.001554187869167,
   "App_Hours": 4.001554187869167,
   "JobId": "14318",
   "Queue": "local",
   "User": "amd_app",
   "App": "TankSim",
   "JobDescription": "TankSim",
   "JobName": "cubevnc",
   "Cluster": "aip",
   "CPU_Cost": 2.0007770939345835,
   "Mem_Cost": 0,
   "GPU_Cost": 2.0007770939345835,
   "App_Cost": 0,
   "StartDate": "2020/10/23",
   "Project": "default"
  },
  {
   "CPU_Hours": 0,
   "Mem_GB_Hours": 0,
   "GPU_Hours": 0,
   "Runtime": 0,
   "App_Hours": 0,
   "JobId": "13244",
   "Queue": "q_x86_share",
   "User": "amd_app",
   "App": "CFX",
   "JobDescription": "Batch-CFX",
   "JobName": "/home/export/online3/amd_share/shangruan/bin/cfxyaml /home/export/base/nsccwuxi_amd/amd_app/WORK/Zhouhl/Project/SimGO/CFX/StaticMixer.def /home/export/base/nsccwuxi_amd/amd_app/WORK/Zhouhl/Project/SimGO/CFX/StaticMixer_2_001.res yes",
   "Cluster": "aip",
   "CPU_Cost": 0,
   "Mem_Cost": 0,
   "GPU_Cost": 0,
   "App_Cost": 0,
   "StartDate": "2020/10/13",
   "Project": "default"
  },
  {
   "CPU_Hours": 0.01888888888888889,
   "Mem_GB_Hours": 0.00009673436482747396,
   "GPU_Hours": 0,
   "Runtime": 0.009444444444444445,
   "App_Hours": 0.01888888888888889,
   "JobId": "13190",
   "Queue": "q_x86_share",
   "User": "amd_app",
   "App": "Abaqus",
   "JobDescription": "Batch-Abaqus",
   "JobName": "/home/export/online3/amd_share/shangruan/bin/abaqus614 /home/export/base/nsccwuxi_amd/amd_app/WORK/dzj/dzj/abaqustest/abaumat/riserdynamics_airy_disp.inp",
   "Cluster": "aip",
   "CPU_Cost": 0.0009444444444444445,
   "Mem_Cost": 0,
   "GPU_Cost": 0,
   "App_Cost": 0.04722222222222222,
   "StartDate": "2020/10/12",
   "Project": "default"
  },
  {
   "CPU_Hours": 0.001388888888888889,
   "Mem_GB_Hours": 0.00008349418640136718,
   "GPU_Hours": 0,
   "Runtime": 0.001388888888888889,
   "App_Hours": 0.001388888888888889,
   "JobId": "14156",
   "Queue": "q_x86_cn_sim",
   "User": "amd_app",
   "App": "ICESimulator",
   "JobName": "/home/export/online3/amd_share/anaconda/bin/python3 /home/export/online3/amd_app/wxy/cas2fe/generate.py /home/export/online3/amd_app/wxy/foamextend_project/icepak_test jixiang_nomerge.cas",
   "Cluster": "aip",
   "CPU_Cost": 0.0006944444444444445,
   "Mem_Cost": 0,
   "GPU_Cost": 0,
   "App_Cost": 0,
   "StartDate": "2020/10/22",
   "Project": "default"
  },
  {
   "CPU_Hours": 3.600214590626667,
   "Mem_GB_Hours": 0.012033446249402406,
   "GPU_Hours": 0,
   "Runtime": 0.1500089412761111,
   "App_Hours": 3.600214590626667,
   "JobId": "13135",
   "Queue": "q_x86_cn_sim",
   "User": "amd_app",
   "App": "Fluent",
   "JobDescription": "Fluent_test",
   "JobName": "cubevnc",
   "Cluster": "aip",
   "CPU_Cost": 0.18001072953133335,
   "Mem_Cost": 0,
   "GPU_Cost": 0,
   "App_Cost": 9.000536476566667,
   "StartDate": "2020/10/09",
   "Project": "default"
  },
  {
   "CPU_Hours": 5.807141560254166,
   "Mem_GB_Hours": 4.440112087517766,
   "GPU_Hours": 5.807141560254166,
   "Runtime": 5.807141560254166,
   "App_Hours": 5.807141560254166,
   "JobId": "13147",
   "Queue": "local",
   "User": "amd_app",
   "App": "ParaView",
   "JobDescription": "paraview_test",
   "JobName": "cubevnc",
   "Cluster": "aip",
   "CPU_Cost": 0.29035707801270844,
   "Mem_Cost": 0,
   "GPU_Cost": 0.29035707801270844,
   "App_Cost": 2.032499546088958,
   "StartDate": "2020/10/09",
   "Project": "default"
  },
  {
   "CPU_Hours": 0.02861111111111111,
   "Mem_GB_Hours": 0.0024106354183620875,
   "GPU_Hours": 0,
   "Runtime": 0.02861111111111111,
   "App_Hours": 0.02861111111111111,
   "JobId": "13162",
   "Queue": "q_x86_cn_sim",
   "User": "amd_app",
   "App": "Fluent",
   "JobDescription": "Fluent_test",
   "JobName": "cubevnc",
   "Cluster": "aip",
   "CPU_Cost": 0.0014305555555555556,
   "Mem_Cost": 0,
   "GPU_Cost": 0,
   "App_Cost": 0.07152777777777777,
   "StartDate": "2020/10/10",
   "Project": "default"
  },
  {
   "CPU_Hours": 16.451212576374996,
   "Mem_GB_Hours": 1.894425178721511,
   "GPU_Hours": 0,
   "Runtime": 16.451212576374996,
   "App_Hours": 16.451212576374996,
   "JobId": "13303",
   "Queue": "q_x86_cn_sim",
   "User": "amd_app",
   "App": "Fluent",
   "JobDescription": "fluent_test",
   "JobName": "cubevnc",
   "Cluster": "aip",
   "CPU_Cost": 0.8225606288187499,
   "Mem_Cost": 0,
   "GPU_Cost": 0,
   "App_Cost": 41.1280314409375,
   "StartDate": "2020/10/15",
   "Project": "default"
  },
  {
   "CPU_Hours": 0.011666666666666667,
   "Mem_GB_Hours": 0.0002420616149902344,
   "GPU_Hours": 0,
   "Runtime": 0.011666666666666667,
   "App_Hours": 0.011666666666666667,
   "JobId": "13203",
   "Queue": "q_x86_share",
   "User": "amd_app",
   "App": "STARCCM+",
   "JobDescription": "Batch-STARCCM+",
   "JobName": "/home/export/online3/amd_share/shangruan/bin/starccmyaml /home/export/base/nsccwuxi_amd/amd_app/WORK/test/test_copy_2.sim",
   "Cluster": "aip",
   "CPU_Cost": 0.0005833333333333334,
   "Mem_Cost": 0,
   "GPU_Cost": 0,
   "App_Cost": 0.058333333333333334,
   "StartDate": "2020/10/12",
   "Project": "default"
  },
  {
   "CPU_Hours": 0.008055555555555555,
   "Mem_GB_Hours": 0.0001853603786892361,
   "GPU_Hours": 0,
   "Runtime": 0.008055555555555555,
   "App_Hours": 0.008055555555555555,
   "JobId": "14160",
   "Queue": "q_x86_cn_sim",
   "User": "amd_app",
   "App": "ICESimulator",
   "JobName": "/home/export/online3/amd_share/anaconda/bin/python3 /home/export/online3/amd_app/wxy/cas2foam/generate.py /home/export/online3/amd_app/wxy/openfoamtest/icepakcases/pcb200 pcb200.cas",
   "Cluster": "aip",
   "CPU_Cost": 0.004027777777777778,
   "Mem_Cost": 0,
   "GPU_Cost": 0,
   "App_Cost": 0,
   "StartDate": "2020/10/22",
   "Project": "default"
  },
  {
   "CPU_Hours": 0.006111111111111111,
   "Mem_GB_Hours": 0.003132834964328342,
   "GPU_Hours": 0.006111111111111111,
   "Runtime": 0.006111111111111111,
   "App_Hours": 0.006111111111111111,
   "JobId": "13384",
   "Queue": "local",
   "User": "amd_app",
   "App": "Abaqus",
   "JobDescription": "Abaqus",
   "JobName": "cubevnc",
   "Cluster": "aip",
   "CPU_Cost": 0.0003055555555555556,
   "Mem_Cost": 0,
   "GPU_Cost": 0.0003055555555555556,
   "App_Cost": 0.015277777777777779,
   "StartDate": "2020/10/16",
   "Project": "default"
  },
  {
   "CPU_Hours": 27.61254081163916,
   "Mem_GB_Hours": 0.27041418602534895,
   "GPU_Hours": 0,
   "Runtime": 27.61254081163916,
   "App_Hours": 27.61254081163916,
   "JobId": "13829",
   "Queue": "q_x86_share",
   "User": "amd_app",
   "App": "Tanksimulator-Calculix",
   "JobDescription": "Study1",
   "JobName": "./solidrun /home/export/base/nsccwuxi_amd/amd_app/WORK/mzy/Study1",
   "Cluster": "aip",
   "CPU_Cost": 1.3806270405819587,
   "Mem_Cost": 0,
   "GPU_Cost": 0,
   "App_Cost": 0,
   "StartDate": "2020/10/20",
   "Project": "default"
  },
  {
   "CPU_Hours": 0.017777777777777778,
   "Mem_GB_Hours": 0.0034952799479166666,
   "GPU_Hours": 0.017777777777777778,
   "Runtime": 0.017777777777777778,
   "App_Hours": 0.017777777777777778,
   "JobId": "14021",
   "Queue": "local",
   "User": "amd_app",
   "App": "TankSim",
   "JobDescription": "TankSim",
   "JobName": "cubevnc",
   "Cluster": "aip",
   "CPU_Cost": 0.008888888888888889,
   "Mem_Cost": 0,
   "GPU_Cost": 0.008888888888888889,
   "App_Cost": 0,
   "StartDate": "2020/10/21",
   "Project": "default"
  },
  {
   "CPU_Hours": 17.257646583248057,
   "Mem_GB_Hours": 0.16846587221729956,
   "GPU_Hours": 0,
   "Runtime": 17.257646583248057,
   "App_Hours": 17.257646583248057,
   "JobId": "14121",
   "Queue": "q_x86_share",
   "User": "amd_app",
   "App": "Tanksim",
   "JobDescription": "testsave",
   "JobName": "./solidrun /home/export/base/nsccwuxi_amd/amd_app/online3/wxy/testsave",
   "Cluster": "aip",
   "CPU_Cost": 8.628823291624029,
   "Mem_Cost": 0,
   "GPU_Cost": 0,
   "App_Cost": 0,
   "StartDate": "2020/10/22",
   "Project": "default"
  },
  {
   "CPU_Hours": 0.0325,
   "Mem_GB_Hours": 0.014949970245361328,
   "GPU_Hours": 0.0325,
   "Runtime": 0.0325,
   "App_Hours": 0.0325,
   "JobId": "14593",
   "Queue": "local",
   "User": "amd_app",
   "App": "FluentMeshing",
   "JobDescription": "FluentMeshing",
   "JobName": "cubevnc",
   "Cluster": "aip",
   "CPU_Cost": 0.01625,
   "Mem_Cost": 0,
   "GPU_Cost": 0.01625,
   "App_Cost": 0,
   "StartDate": "2020/10/26",
   "Project": "default"
  },
  {
   "CPU_Hours": 4.001007014361668,
   "Mem_GB_Hours": 0.7662517573223927,
   "GPU_Hours": 4.001007014361668,
   "Runtime": 4.001007014361668,
   "App_Hours": 4.001007014361668,
   "JobId": "14955",
   "Queue": "local",
   "User": "amd_app",
   "App": "TankSim",
   "JobDescription": "TankSim",
   "JobName": "cubevnc",
   "Cluster": "aip",
   "CPU_Cost": 2.000503507180834,
   "Mem_Cost": 0,
   "GPU_Cost": 2.000503507180834,
   "App_Cost": 0,
   "StartDate": "2020/10/28",
   "Project": "default"
  },
  {
   "CPU_Hours": 1.8488888888888888,
   "Mem_GB_Hours": 0.0011826917860243056,
   "GPU_Hours": 0,
   "Runtime": 0.11555555555555555,
   "App_Hours": 1.8488888888888888,
   "JobId": "13399",
   "Queue": "q_x86_vio_share",
   "User": "amd_app",
   "App": "Abaqus2017",
   "JobDescription": "Job-133333-qiuxiao",
   "JobName": "Job-133333",
   "Cluster": "aip",
   "CPU_Cost": 0.09244444444444444,
   "Mem_Cost": 0,
   "GPU_Cost": 0,
   "App_Cost": 9.244444444444444,
   "StartDate": "2020/10/16",
   "Project": "default"
  },
  {
   "CPU_Hours": 8.003711471826666,
   "Mem_GB_Hours": 2.702430611122696,
   "GPU_Hours": 0,
   "Runtime": 4.001855735913333,
   "App_Hours": 8.003711471826666,
   "JobId": "14124",
   "Queue": "q_x86_vio_share_plus",
   "User": "amd_app",
   "App": "StarCCM",
   "JobDescription": "StarCCM",
   "JobName": "cubevnc",
   "Cluster": "aip",
   "CPU_Cost": 4.001855735913333,
   "Mem_Cost": 0,
   "GPU_Cost": 0,
   "App_Cost": 0,
   "StartDate": "2020/10/22",
   "Project": "default"
  },
  {
   "CPU_Hours": 3863.2965395021492,
   "Mem_GB_Hours": 45.11356716961932,
   "GPU_Hours": 0,
   "Runtime": 160.970689145923,
   "App_Hours": 3863.2965395021492,
   "JobId": "13072",
   "Queue": "q_x86_cn_sim",
   "User": "amd_app",
   "App": "Fluent",
   "JobDescription": "Fluent_test",
   "JobName": "cubevnc",
   "Cluster": "aip",
   "CPU_Cost": 193.16482697510764,
   "Mem_Cost": 0,
   "GPU_Cost": 0,
   "App_Cost": 9658.241348755399,
   "StartDate": "2020/09/30",
   "Project": "default"
  },
  {
   "CPU_Hours": 0.059166666666666666,
   "Mem_GB_Hours": 0.019247042338053386,
   "GPU_Hours": 0.059166666666666666,
   "Runtime": 0.059166666666666666,
   "App_Hours": 0.059166666666666666,
   "JobId": "14015",
   "Queue": "local",
   "User": "amd_app",
   "App": "CFX-pre",
   "JobDescription": "CFX-pre",
   "JobName": "cubevnc",
   "Cluster": "aip",
   "CPU_Cost": 0.029583333333333333,
   "Mem_Cost": 0,
   "GPU_Cost": 0.029583333333333333,
   "App_Cost": 0,
   "StartDate": "2020/10/21",
   "Project": "default"
  },
  {
   "CPU_Hours": 0.1475,
   "Mem_GB_Hours": 0.042841529846191405,
   "GPU_Hours": 0.1475,
   "Runtime": 0.1475,
   "App_Hours": 0.1475,
   "JobId": "13614",
   "Queue": "local",
   "User": "amd_app",
   "App": "LSPrePost",
   "JobDescription": "LSPrePost",
   "JobName": "cubevnc",
   "Cluster": "aip",
   "CPU_Cost": 0.007375,
   "Mem_Cost": 0,
   "GPU_Cost": 0.007375,
   "App_Cost": 0,
   "StartDate": "2020/10/18",
   "Project": "default"
  },
  {
   "CPU_Hours": 0.41,
   "Mem_GB_Hours": 0.010371837615966797,
   "GPU_Hours": 0,
   "Runtime": 0.1025,
   "App_Hours": 0.41,
   "JobId": "13139",
   "Queue": "q_x86_vio_share",
   "User": "amd_app",
   "App": "Fluent",
   "JobDescription": "Fluent_test",
   "JobName": "cubevnc",
   "Cluster": "aip",
   "CPU_Cost": 0.0205,
   "Mem_Cost": 0,
   "GPU_Cost": 0,
   "App_Cost": 1.025,
   "StartDate": "2020/10/09",
   "Project": "default"
  },
  {
   "CPU_Hours": 0.0500110025275,
   "Mem_GB_Hours": 0.018561054163749112,
   "GPU_Hours": 0.0500110025275,
   "Runtime": 0.0500110025275,
   "App_Hours": 0.0500110025275,
   "JobId": "13616",
   "Queue": "local",
   "User": "amd_app",
   "App": "ParaView",
   "JobDescription": "ParaView",
   "JobName": "cubevnc",
   "Cluster": "aip",
   "CPU_Cost": 0.002500550126375,
   "Mem_Cost": 0,
   "GPU_Cost": 0.002500550126375,
   "App_Cost": 0.017503850884625,
   "StartDate": "2020/10/18",
   "Project": "default"
  },
  {
   "CPU_Hours": 0.3661207474211111,
   "Mem_GB_Hours": 0.04127892540294972,
   "GPU_Hours": 0,
   "Runtime": 0.3661207474211111,
   "App_Hours": 0.3661207474211111,
   "JobId": "13236",
   "Queue": "q_x86_cn_sim",
   "User": "amd_app",
   "App": "Fluent",
   "JobDescription": "Fluent",
   "JobName": "cubevnc",
   "Cluster": "aip",
   "CPU_Cost": 0.01830603737105556,
   "Mem_Cost": 0,
   "GPU_Cost": 0,
   "App_Cost": 0.9153018685527777,
   "StartDate": "2020/10/13",
   "Project": "default"
  },
  {
   "CPU_Hours": 4.000977457364444,
   "Mem_GB_Hours": 2.550833539472017,
   "GPU_Hours": 4.000977457364444,
   "Runtime": 4.000977457364444,
   "App_Hours": 4.000977457364444,
   "JobId": "13164",
   "Queue": "local",
   "User": "amd_app",
   "App": "ParaView",
   "JobDescription": "RF",
   "JobName": "cubevnc",
   "Cluster": "aip",
   "CPU_Cost": 0.20004887286822223,
   "Mem_Cost": 0,
   "GPU_Cost": 0.20004887286822223,
   "App_Cost": 1.4003421100775553,
   "StartDate": "2020/10/10",
   "Project": "default"
  },
  {
   "CPU_Hours": 0.028055555555555556,
   "Mem_GB_Hours": 0.008449822531806098,
   "GPU_Hours": 0.028055555555555556,
   "Runtime": 0.028055555555555556,
   "App_Hours": 0.028055555555555556,
   "JobId": "13697",
   "Queue": "local",
   "User": "amd_app",
   "App": "CFD-POST",
   "JobDescription": "CFD-post",
   "JobName": "cubevnc",
   "Cluster": "aip",
   "CPU_Cost": 0.001402777777777778,
   "Mem_Cost": 0,
   "GPU_Cost": 0.001402777777777778,
   "App_Cost": 0,
   "StartDate": "2020/10/19",
   "Project": "default"
  },
  {
   "CPU_Hours": 0.32666666666666666,
   "Mem_GB_Hours": 0.0009648715125189887,
   "GPU_Hours": 0,
   "Runtime": 0.01361111111111111,
   "App_Hours": 0.32666666666666666,
   "JobId": "13163",
   "Queue": "q_x86_cn_sim",
   "User": "amd_app",
   "App": "AnsysAPDL",
   "JobDescription": "AnsysAPDL",
   "JobName": "cubevnc",
   "Cluster": "aip",
   "CPU_Cost": 0.016333333333333335,
   "Mem_Cost": 0,
   "GPU_Cost": 0,
   "App_Cost": 0,
   "StartDate": "2020/10/10",
   "Project": "default"
  },
  {
   "CPU_Hours": 0.008888888888888889,
   "Mem_GB_Hours": 0.0001144748263888889,
   "GPU_Hours": 0,
   "Runtime": 0.008888888888888889,
   "App_Hours": 0.008888888888888889,
   "JobId": "14115",
   "Queue": "q_x86_share",
   "User": "amd_app",
   "App": "Tanksim",
   "JobDescription": "testsave",
   "JobName": "./fluidrun /home/export/base/nsccwuxi_amd/amd_app/online3/wxy/testsave TODO 2 2",
   "Cluster": "aip",
   "CPU_Cost": 0.0044444444444444444,
   "Mem_Cost": 0,
   "GPU_Cost": 0,
   "App_Cost": 0,
   "StartDate": "2020/10/22",
   "Project": "default"
  },
  {
   "CPU_Hours": 0.0077777777777777776,
   "Mem_GB_Hours": 0.000039802127414279515,
   "GPU_Hours": 0,
   "Runtime": 0.0038888888888888888,
   "App_Hours": 0.0077777777777777776,
   "JobId": "13191",
   "Queue": "q_x86_share",
   "User": "amd_app",
   "App": "Abaqus",
   "JobDescription": "Batch-Abaqus",
   "JobName": "/home/export/online3/amd_share/shangruan/bin/abaqus614 /home/export/base/nsccwuxi_amd/amd_app/WORK/dzj/dzj/abaqustest/abaumat/riserdynamics_airy_disp.inp",
   "Cluster": "aip",
   "CPU_Cost": 0.0003888888888888889,
   "Mem_Cost": 0,
   "GPU_Cost": 0,
   "App_Cost": 0.019444444444444445,
   "StartDate": "2020/10/12",
   "Project": "default"
  },
  {
   "CPU_Hours": 3.9254368894883327,
   "Mem_GB_Hours": 1.5954397884039413,
   "GPU_Hours": 3.9254368894883327,
   "Runtime": 3.9254368894883327,
   "App_Hours": 3.9254368894883327,
   "JobId": "13992",
   "Queue": "local",
   "User": "amd_app",
   "App": "ParaView",
   "JobDescription": "ParaView",
   "JobName": "cubevnc",
   "Cluster": "aip",
   "CPU_Cost": 1.9627184447441663,
   "Mem_Cost": 0,
   "GPU_Cost": 1.9627184447441663,
   "App_Cost": 0,
   "StartDate": "2020/10/21",
   "Project": "default"
  },
  {
   "CPU_Hours": 30.521038015406663,
   "Mem_GB_Hours": 0.1220428764216161,
   "GPU_Hours": 0,
   "Runtime": 1.271709917308611,
   "App_Hours": 30.521038015406663,
   "JobId": "13138",
   "Queue": "q_x86_cn_sim",
   "User": "amd_app",
   "App": "Fluent",
   "JobDescription": "Fluent_test",
   "JobName": "cubevnc",
   "Cluster": "aip",
   "CPU_Cost": 1.5260519007703333,
   "Mem_Cost": 0,
   "GPU_Cost": 0,
   "App_Cost": 76.30259503851667,
   "StartDate": "2020/10/09",
   "Project": "default"
  },
  {
   "CPU_Hours": 0.001388888888888889,
   "Mem_GB_Hours": 0.00006992552015516493,
   "GPU_Hours": 0,
   "Runtime": 0.001388888888888889,
   "App_Hours": 0.001388888888888889,
   "JobId": "14155",
   "Queue": "q_x86_cn_sim",
   "User": "amd_app",
   "App": "ICESimulator",
   "JobName": "/home/export/online3/amd_share/anaconda/bin/python3 /home/export/online3/amd_app/wxy/cas2fe/generate.py /home/export/online3/amd_app/wxy/foamextend_project/icepak_test jixiang_nomerge.cas",
   "Cluster": "aip",
   "CPU_Cost": 0.0006944444444444445,
   "Mem_Cost": 0,
   "GPU_Cost": 0,
   "App_Cost": 0,
   "StartDate": "2020/10/22",
   "Project": "default"
  },
  {
   "CPU_Hours": 0.2808422170036111,
   "Mem_GB_Hours": 0.09592264705848322,
   "GPU_Hours": 0.2808422170036111,
   "Runtime": 0.2808422170036111,
   "App_Hours": 0.2808422170036111,
   "JobId": "13403",
   "Queue": "local",
   "User": "amd_app",
   "App": "LSPrePost",
   "JobDescription": "LSPrePost",
   "JobName": "cubevnc",
   "Cluster": "aip",
   "CPU_Cost": 0.014042110850180556,
   "Mem_Cost": 0,
   "GPU_Cost": 0.014042110850180556,
   "App_Cost": 0,
   "StartDate": "2020/10/16",
   "Project": "default"
  },
  {
   "CPU_Hours": 0.0075,
   "Mem_GB_Hours": 0.002867746353149414,
   "GPU_Hours": 0.0075,
   "Runtime": 0.0075,
   "App_Hours": 0.0075,
   "JobId": "14019",
   "Queue": "local",
   "User": "amd_app",
   "App": "ParaView",
   "JobDescription": "ParaView",
   "JobName": "cubevnc",
   "Cluster": "aip",
   "CPU_Cost": 0.00375,
   "Mem_Cost": 0,
   "GPU_Cost": 0.00375,
   "App_Cost": 0,
   "StartDate": "2020/10/21",
   "Project": "default"
  },
  {
   "CPU_Hours": 1.5942324623,
   "Mem_GB_Hours": 0.9361612854710971,
   "GPU_Hours": 1.5942324623,
   "Runtime": 1.5942324623,
   "App_Hours": 1.5942324623,
   "JobId": "14077",
   "Queue": "local",
   "User": "amd_app",
   "App": "ParaView",
   "JobDescription": "pv1022",
   "JobName": "cubevnc",
   "Cluster": "aip",
   "CPU_Cost": 0.79711623115,
   "Mem_Cost": 0,
   "GPU_Cost": 0.79711623115,
   "App_Cost": 0,
   "StartDate": "2020/10/22",
   "Project": "default"
  },
  {
   "CPU_Hours": 0.04555555555555556,
   "Mem_GB_Hours": 0.0431141111585829,
   "GPU_Hours": 0,
   "Runtime": 0.04555555555555556,
   "App_Hours": 0.04555555555555556,
   "JobId": "13843",
   "Queue": "q_x86_share",
   "User": "amd_app",
   "App": "Tanksimulator-MeshGenerate",
   "JobDescription": "Study1",
   "JobName": "./fluidprepare /home/export/base/nsccwuxi_amd/amd_app/WORK/mzy/Study1",
   "Cluster": "aip",
   "CPU_Cost": 0.002277777777777778,
   "Mem_Cost": 0,
   "GPU_Cost": 0,
   "App_Cost": 0,
   "StartDate": "2020/10/20",
   "Project": "default"
  },
  {
   "CPU_Hours": 4.000441892174444,
   "Mem_GB_Hours": 0.7672022058026662,
   "GPU_Hours": 4.000441892174444,
   "Runtime": 4.000441892174444,
   "App_Hours": 4.000441892174444,
   "JobId": "14325",
   "Queue": "local",
   "User": "amd_app",
   "App": "TankSim",
   "JobDescription": "TankSim",
   "JobName": "cubevnc",
   "Cluster": "aip",
   "CPU_Cost": 2.000220946087222,
   "Mem_Cost": 0,
   "GPU_Cost": 2.000220946087222,
   "App_Cost": 0,
   "StartDate": "2020/10/23",
   "Project": "default"
  },
  {
   "CPU_Hours": 4.010139576075556,
   "Mem_GB_Hours": 0.10173160394109851,
   "GPU_Hours": 0,
   "Runtime": 1.002534894018889,
   "App_Hours": 4.010139576075556,
   "JobId": "14742",
   "Queue": "q_x86_expr",
   "User": "amd_app",
   "App": "Fluent",
   "JobDescription": "panyh_ceshi",
   "JobName": "cubevnc",
   "Cluster": "aip",
   "CPU_Cost": 2.005069788037778,
   "Mem_Cost": 0,
   "GPU_Cost": 0,
   "App_Cost": 0,
   "StartDate": "2020/10/27",
   "Project": "default"
  },
  {
   "CPU_Hours": 14.533963347493334,
   "Mem_GB_Hours": 0.05852170492619129,
   "GPU_Hours": 0,
   "Runtime": 0.6055818061455555,
   "App_Hours": 14.533963347493334,
   "JobId": "13130",
   "Queue": "q_x86_cn_sim",
   "User": "amd_app",
   "App": "Fluent",
   "JobDescription": "Fluent_test",
   "JobName": "cubevnc",
   "Cluster": "aip",
   "CPU_Cost": 0.7266981673746667,
   "Mem_Cost": 0,
   "GPU_Cost": 0,
   "App_Cost": 36.33490836873334,
   "StartDate": "2020/10/09",
   "Project": "default"
  },
  {
   "CPU_Hours": 8.001156201077777,
   "Mem_GB_Hours": 1.6151058279850345,
   "GPU_Hours": 8.001156201077777,
   "Runtime": 8.001156201077777,
   "App_Hours": 8.001156201077777,
   "JobId": "13846",
   "Queue": "local",
   "User": "amd_app",
   "App": "TankSim",
   "JobDescription": "TankSim",
   "JobName": "cubevnc",
   "Cluster": "aip",
   "CPU_Cost": 0.40005781005388885,
   "Mem_Cost": 0,
   "GPU_Cost": 0.40005781005388885,
   "App_Cost": 5.600809340754443,
   "StartDate": "2020/10/20",
   "Project": "default"
  },
  {
   "CPU_Hours": 4.0007208545358335,
   "Mem_GB_Hours": 0.6615518508899159,
   "GPU_Hours": 4.0007208545358335,
   "Runtime": 4.0007208545358335,
   "App_Hours": 4.0007208545358335,
   "JobId": "14313",
   "Queue": "local",
   "User": "amd_app",
   "App": "TankSim",
   "JobDescription": "TankSim",
   "JobName": "cubevnc",
   "Cluster": "aip",
   "CPU_Cost": 2.0003604272679167,
   "Mem_Cost": 0,
   "GPU_Cost": 2.0003604272679167,
   "App_Cost": 0,
   "StartDate": "2020/10/23",
   "Project": "default"
  },
  {
   "CPU_Hours": 0.2650110520205556,
   "Mem_GB_Hours": 0.9030837871570774,
   "GPU_Hours": 0.2650110520205556,
   "Runtime": 0.2650110520205556,
   "App_Hours": 0.2650110520205556,
   "JobId": "14068",
   "Queue": "local",
   "User": "amd_app",
   "App": "ParaView",
   "JobDescription": "ParaView",
   "JobName": "cubevnc",
   "Cluster": "aip",
   "CPU_Cost": 0.1325055260102778,
   "Mem_Cost": 0,
   "GPU_Cost": 0.1325055260102778,
   "App_Cost": 0,
   "StartDate": "2020/10/22",
   "Project": "default"
  },
  {
   "CPU_Hours": 4.002096511686944,
   "Mem_GB_Hours": 1.3929976022318011,
   "GPU_Hours": 4.002096511686944,
   "Runtime": 4.002096511686944,
   "App_Hours": 4.002096511686944,
   "JobId": "14615",
   "Queue": "local",
   "User": "amd_app",
   "App": "LSPrePost",
   "JobDescription": "LS-dynamic",
   "JobName": "cubevnc",
   "Cluster": "aip",
   "CPU_Cost": 2.001048255843472,
   "Mem_Cost": 0,
   "GPU_Cost": 2.001048255843472,
   "App_Cost": 0,
   "StartDate": "2020/10/26",
   "Project": "default"
  },
  {
   "CPU_Hours": 8.00087133975722,
   "Mem_GB_Hours": 1.5904237544213262,
   "GPU_Hours": 8.00087133975722,
   "Runtime": 8.00087133975722,
   "App_Hours": 8.00087133975722,
   "JobId": "13819",
   "Queue": "local",
   "User": "amd_app",
   "App": "TankSim",
   "JobDescription": "TankSim",
   "JobName": "cubevnc",
   "Cluster": "aip",
   "CPU_Cost": 0.40004356698786114,
   "Mem_Cost": 0,
   "GPU_Cost": 0.40004356698786114,
   "App_Cost": 5.600609937830054,
   "StartDate": "2020/10/20",
   "Project": "default"
  },
  {
   "CPU_Hours": 0.006944444444444444,
   "Mem_GB_Hours": 0.00014419025844997828,
   "GPU_Hours": 0,
   "Runtime": 0.006944444444444444,
   "App_Hours": 0.006944444444444444,
   "JobId": "13227",
   "Queue": "q_x86_share",
   "User": "amd_app",
   "App": "Fluent",
   "JobDescription": "Batch-Fluent",
   "JobName": "/home/export/base/nsccwuxi_amd/amd_app/amd_share/shangruan/bin/fluentyaml /home/export/base/nsccwuxi_amd/amd_app/WORK/Zhouhl/Project/SimGO/Fluent/mixing_tank/mixing_tank.jou 3ddp",
   "Cluster": "aip",
   "CPU_Cost": 0.00034722222222222224,
   "Mem_Cost": 0,
   "GPU_Cost": 0,
   "App_Cost": 0.017361111111111112,
   "StartDate": "2020/10/13",
   "Project": "default"
  },
  {
   "CPU_Hours": 2.6267695164855556,
   "Mem_GB_Hours": 0.05073267769527038,
   "GPU_Hours": 0,
   "Runtime": 0.6566923791213889,
   "App_Hours": 2.6267695164855556,
   "JobId": "13121",
   "Queue": "q_x86_cn_sim",
   "User": "amd_app",
   "App": "Fluent",
   "JobDescription": "Fluent_test",
   "JobName": "cubevnc",
   "Cluster": "aip",
   "CPU_Cost": 0.13133847582427777,
   "Mem_Cost": 0,
   "GPU_Cost": 0,
   "App_Cost": 6.566923791213888,
   "StartDate": "2020/10/09",
   "Project": "default"
  },
  {
   "CPU_Hours": 0.24944913908888888,
   "Mem_GB_Hours": 0.004242231346838887,
   "GPU_Hours": 0,
   "Runtime": 0.24944913908888888,
   "App_Hours": 0.24944913908888888,
   "JobId": "13205",
   "Queue": "q_x86_share",
   "User": "amd_app",
   "App": "STARCCM+",
   "JobDescription": "Batch-STARCCM+",
   "JobName": "/home/export/online3/amd_share/shangruan/bin/starccmyaml /home/export/base/nsccwuxi_amd/amd_app/WORK/Zhouhl/Project/SimGO/STARCCM/adjointWing_start_200.sim",
   "Cluster": "aip",
   "CPU_Cost": 0.012472456954444445,
   "Mem_Cost": 0,
   "GPU_Cost": 0,
   "App_Cost": 1.2472456954444444,
   "StartDate": "2020/10/12",
   "Project": "default"
  },
  {
   "CPU_Hours": 161.16541988337522,
   "Mem_GB_Hours": 608.4637491552095,
   "GPU_Hours": 161.16541988337522,
   "Runtime": 161.16541988337522,
   "App_Hours": 161.16541988337522,
   "JobId": "13068",
   "Queue": "local",
   "User": "amd_app",
   "App": "ICEPAK",
   "JobDescription": "ICEPAK",
   "JobName": "cubevnc",
   "Cluster": "aip",
   "CPU_Cost": 8.058270994168765,
   "Mem_Cost": 0,
   "GPU_Cost": 8.058270994168765,
   "App_Cost": 0,
   "StartDate": "2020/09/30",
   "Project": "default"
  },
  {
   "CPU_Hours": 4.001274194243889,
   "Mem_GB_Hours": 2.1087899612247347,
   "GPU_Hours": 4.001274194243889,
   "Runtime": 4.001274194243889,
   "App_Hours": 4.001274194243889,
   "JobId": "13858",
   "Queue": "local",
   "User": "amd_app",
   "App": "Abaqus",
   "JobDescription": "Abaqus",
   "JobName": "cubevnc",
   "Cluster": "aip",
   "CPU_Cost": 0.20006370971219445,
   "Mem_Cost": 0,
   "GPU_Cost": 0.20006370971219445,
   "App_Cost": 10.003185485609722,
   "StartDate": "2020/10/20",
   "Project": "default"
  },
  {
   "CPU_Hours": 0.03333333333333333,
   "Mem_GB_Hours": 0.000014008416069878473,
   "GPU_Hours": 0,
   "Runtime": 0.001388888888888889,
   "App_Hours": 0.03333333333333333,
   "JobId": "13109",
   "Queue": "q_x86_cn_sim",
   "User": "amd_app",
   "App": "Fluent",
   "JobDescription": "fluent_test",
   "JobName": "cubevnc",
   "Cluster": "aip",
   "CPU_Cost": 0.0016666666666666668,
   "Mem_Cost": 0,
   "GPU_Cost": 0,
   "App_Cost": 0.08333333333333333,
   "StartDate": "2020/10/08",
   "Project": "default"
  },
  {
   "CPU_Hours": 0.012777777777777779,
   "Mem_GB_Hours": 0.005857683817545574,
   "GPU_Hours": 0.012777777777777779,
   "Runtime": 0.012777777777777779,
   "App_Hours": 0.012777777777777779,
   "JobId": "13405",
   "Queue": "local",
   "User": "amd_app",
   "App": "FluentMeshing",
   "JobDescription": "FluentMeshing",
   "JobName": "cubevnc",
   "Cluster": "aip",
   "CPU_Cost": 0.0006388888888888889,
   "Mem_Cost": 0,
   "GPU_Cost": 0.0006388888888888889,
   "App_Cost": 0,
   "StartDate": "2020/10/16",
   "Project": "default"
  },
  {
   "CPU_Hours": 0.0016666666666666668,
   "Mem_GB_Hours": 0.00001712799072265625,
   "GPU_Hours": 0,
   "Runtime": 0.0016666666666666668,
   "App_Hours": 0.0016666666666666668,
   "JobId": "13150",
   "Queue": "q_x86_cn_sim",
   "User": "amd_app",
   "App": "Fluent",
   "JobDescription": "Fluent_test",
   "JobName": "cubevnc",
   "Cluster": "aip",
   "CPU_Cost": 0.00008333333333333334,
   "Mem_Cost": 0,
   "GPU_Cost": 0,
   "App_Cost": 0.004166666666666667,
   "StartDate": "2020/10/09",
   "Project": "default"
  },
  {
   "CPU_Hours": 0.7769918253888888,
   "Mem_GB_Hours": 0.41263590939213696,
   "GPU_Hours": 0.7769918253888888,
   "Runtime": 0.7769918253888888,
   "App_Hours": 0.7769918253888888,
   "JobId": "13396",
   "Queue": "local",
   "User": "amd_app",
   "App": "Abaqus",
   "JobDescription": "Abaqus",
   "JobName": "cubevnc",
   "Cluster": "aip",
   "CPU_Cost": 0.03884959126944445,
   "Mem_Cost": 0,
   "GPU_Cost": 0.03884959126944445,
   "App_Cost": 1.9424795634722223,
   "StartDate": "2020/10/16",
   "Project": "default"
  },
  {
   "CPU_Hours": 6.592166133137779,
   "Mem_GB_Hours": 2.761946331826635,
   "GPU_Hours": 6.592166133137779,
   "Runtime": 6.592166133137779,
   "App_Hours": 6.592166133137779,
   "JobId": "13192",
   "Queue": "local",
   "User": "amd_app",
   "App": "ICEPAK",
   "JobDescription": "ICEPAK",
   "JobName": "cubevnc",
   "Cluster": "aip",
   "CPU_Cost": 0.3296083066568889,
   "Mem_Cost": 0,
   "GPU_Cost": 0.3296083066568889,
   "App_Cost": 0,
   "StartDate": "2020/10/12",
   "Project": "default"
  },
  {
   "CPU_Hours": 1.56,
   "Mem_GB_Hours": 0.0049908447265625,
   "GPU_Hours": 0,
   "Runtime": 0.065,
   "App_Hours": 1.56,
   "JobId": "13114",
   "Queue": "q_x86_cn_sim",
   "User": "amd_app",
   "App": "Fluent",
   "JobDescription": "fluent_test",
   "JobName": "cubevnc",
   "Cluster": "aip",
   "CPU_Cost": 0.07800000000000001,
   "Mem_Cost": 0,
   "GPU_Cost": 0,
   "App_Cost": 3.9000000000000004,
   "StartDate": "2020/10/08",
   "Project": "default"
  },
  {
   "CPU_Hours": 0.0022222222222222222,
   "Mem_GB_Hours": 0.000050328572591145833,
   "GPU_Hours": 0,
   "Runtime": 0.0022222222222222222,
   "App_Hours": 0.0022222222222222222,
   "JobId": "14638",
   "Queue": "q_x86_cn_sim",
   "User": "amd_app",
   "App": "ICESimulator",
   "JobName": "/home/export/online3/amd_share/anaconda/bin/python3 /home/export/online3/amd_app/wxy/cas2fe/generate.py /home/export/online3/amd_app/wxy/foamextend_project/icepak_test jixiang_nomerge.cas",
   "Cluster": "aip",
   "CPU_Cost": 0.0011111111111111111,
   "Mem_Cost": 0,
   "GPU_Cost": 0,
   "App_Cost": 0,
   "StartDate": "2020/10/26",
   "Project": "default"
  },
  {
   "CPU_Hours": 3.525968519289167,
   "Mem_GB_Hours": 0.7488395259095653,
   "GPU_Hours": 3.525968519289167,
   "Runtime": 3.525968519289167,
   "App_Hours": 3.525968519289167,
   "JobId": "13825",
   "Queue": "local",
   "User": "amd_app",
   "App": "TankSim",
   "JobDescription": "TankSim",
   "JobName": "cubevnc",
   "Cluster": "aip",
   "CPU_Cost": 0.17629842596445836,
   "Mem_Cost": 0,
   "GPU_Cost": 0.17629842596445836,
   "App_Cost": 2.468177963502416,
   "StartDate": "2020/10/20",
   "Project": "default"
  },
  {
   "CPU_Hours": 41.09712040489946,
   "Mem_GB_Hours": 15.083713298197017,
   "GPU_Hours": 41.09712040489946,
   "Runtime": 41.09712040489946,
   "App_Hours": 41.09712040489946,
   "JobId": "13266",
   "Queue": "local",
   "User": "amd_app",
   "App": "PointWise",
   "JobDescription": "PointWise",
   "JobName": "cubevnc",
   "Cluster": "aip",
   "CPU_Cost": 2.054856020244972,
   "Mem_Cost": 0,
   "GPU_Cost": 2.054856020244972,
   "App_Cost": 143.839921417148,
   "StartDate": "2020/10/14",
   "Project": "default"
  },
  {
   "CPU_Hours": 0.005555555555555556,
   "Mem_GB_Hours": 0.0017026053534613715,
   "GPU_Hours": 0.005555555555555556,
   "Runtime": 0.005555555555555556,
   "App_Hours": 0.005555555555555556,
   "JobId": "14020",
   "Queue": "local",
   "User": "amd_app",
   "App": "PointWise",
   "JobDescription": "PointWise",
   "JobName": "cubevnc",
   "Cluster": "aip",
   "CPU_Cost": 0.002777777777777778,
   "Mem_Cost": 0,
   "GPU_Cost": 0.002777777777777778,
   "App_Cost": 0,
   "StartDate": "2020/10/21",
   "Project": "default"
  },
  {
   "CPU_Hours": 1.0745010559694443,
   "Mem_GB_Hours": 2.230997806611738,
   "GPU_Hours": 1.0745010559694443,
   "Runtime": 1.0745010559694443,
   "App_Hours": 1.0745010559694443,
   "JobId": "13409",
   "Queue": "local",
   "User": "amd_app",
   "App": "ParaView",
   "JobDescription": "ParaView",
   "JobName": "cubevnc",
   "Cluster": "aip",
   "CPU_Cost": 0.05372505279847222,
   "Mem_Cost": 0,
   "GPU_Cost": 0.05372505279847222,
   "App_Cost": 0.3760753695893055,
   "StartDate": "2020/10/16",
   "Project": "default"
  },
  {
   "CPU_Hours": 21.81464363760944,
   "Mem_GB_Hours": 3.737494877532047,
   "GPU_Hours": 0,
   "Runtime": 21.81464363760944,
   "App_Hours": 21.81464363760944,
   "JobId": "13217",
   "Queue": "q_x86_cn_sim",
   "User": "amd_app",
   "App": "Fluent",
   "JobDescription": "Fluent",
   "JobName": "cubevnc",
   "Cluster": "aip",
   "CPU_Cost": 1.0907321818804725,
   "Mem_Cost": 0,
   "GPU_Cost": 0,
   "App_Cost": 54.5366090940236,
   "StartDate": "2020/10/12",
   "Project": "default"
  },
  {
   "CPU_Hours": 0.020833333333333332,
   "Mem_GB_Hours": 0.001892725626627604,
   "GPU_Hours": 0,
   "Runtime": 0.020833333333333332,
   "App_Hours": 0.020833333333333332,
   "JobId": "14022",
   "Queue": "q_x86_cn_sim",
   "User": "amd_app",
   "App": "Fluent",
   "JobDescription": "Fluent",
   "JobName": "cubevnc",
   "Cluster": "aip",
   "CPU_Cost": 0.010416666666666666,
   "Mem_Cost": 0,
   "GPU_Cost": 0,
   "App_Cost": 0,
   "StartDate": "2020/10/21",
   "Project": "default"
  },
  {
   "CPU_Hours": 0.002777777777777778,
   "Mem_GB_Hours": 0.000018278757731119793,
   "GPU_Hours": 0,
   "Runtime": 0.002777777777777778,
   "App_Hours": 0.002777777777777778,
   "JobId": "13248",
   "Queue": "q_x86_share",
   "User": "amd_app",
   "JobName": "/home/export/online3/amd_share/shangruan/bin/cfxyaml",
   "Cluster": "aip",
   "CPU_Cost": 0.0001388888888888889,
   "Mem_Cost": 0,
   "GPU_Cost": 0,
   "App_Cost": 0,
   "StartDate": "2020/10/13",
   "Project": "default"
  },
  {
   "CPU_Hours": 0.05527777777777778,
   "Mem_GB_Hours": 0.005654214223225912,
   "GPU_Hours": 0,
   "Runtime": 0.05527777777777778,
   "App_Hours": 0.05527777777777778,
   "JobId": "13430",
   "Queue": "q_x86_cn_sim",
   "User": "amd_app",
   "App": "Fluent",
   "JobDescription": "fluent_test",
   "JobName": "cubevnc",
   "Cluster": "aip",
   "CPU_Cost": 0.002763888888888889,
   "Mem_Cost": 0,
   "GPU_Cost": 0,
   "App_Cost": 0.13819444444444445,
   "StartDate": "2020/10/16",
   "Project": "default"
  },
  {
   "CPU_Hours": 0.7997578748122223,
   "Mem_GB_Hours": 0.0054352952655250635,
   "GPU_Hours": 0,
   "Runtime": 0.7997578748122223,
   "App_Hours": 0.7997578748122223,
   "JobId": "13144",
   "Queue": "q_x86_cn_sim",
   "User": "amd_app",
   "App": "STARCCM+",
   "JobDescription": "Batch-STARCCM+",
   "JobName": "/home/export/online3/amd_share/shangruan/bin/starccmyaml /home/export/base/nsccwuxi_amd/amd_app/WORK/Zhouhl/Project/SimGO/STARCCM/openWaterPropeller_start_200.sim",
   "Cluster": "aip",
   "CPU_Cost": 0.03998789374061111,
   "Mem_Cost": 0,
   "GPU_Cost": 0,
   "App_Cost": 3.9987893740611113,
   "StartDate": "2020/10/09",
   "Project": "default"
  },
  {
   "CPU_Hours": 0.005555555555555556,
   "Mem_GB_Hours": 0.00011530982123480903,
   "GPU_Hours": 0,
   "Runtime": 0.005555555555555556,
   "App_Hours": 0.005555555555555556,
   "JobId": "13161",
   "Queue": "q_x86_share",
   "User": "amd_app",
   "App": "Fluent",
   "JobDescription": "Batch-Fluent",
   "JobName": "/home/export/base/nsccwuxi_amd/amd_app/amd_share/shangruan/bin/fluentyaml /home/export/base/nsccwuxi_amd/amd_app/WORK/Zhouhl/Project/SimGO/Fluent/mixing_tank/mixing_tank.jou 3ddp",
   "Cluster": "aip",
   "CPU_Cost": 0.0002777777777777778,
   "Mem_Cost": 0,
   "GPU_Cost": 0,
   "App_Cost": 0.01388888888888889,
   "StartDate": "2020/10/09",
   "Project": "default"
  },
  {
   "CPU_Hours": 0.04,
   "Mem_GB_Hours": 0.00001681009928385417,
   "GPU_Hours": 0,
   "Runtime": 0.0016666666666666668,
   "App_Hours": 0.04,
   "JobId": "13110",
   "Queue": "q_x86_cn_sim",
   "User": "amd_app",
   "App": "Fluent",
   "JobDescription": "Fluent",
   "JobName": "cubevnc",
   "Cluster": "aip",
   "CPU_Cost": 0.002,
   "Mem_Cost": 0,
   "GPU_Cost": 0,
   "App_Cost": 0.1,
   "StartDate": "2020/10/08",
   "Project": "default"
  },
  {
   "CPU_Hours": 31.064148966906384,
   "Mem_GB_Hours": 7.876212207174299,
   "GPU_Hours": 31.064148966906384,
   "Runtime": 31.064148966906384,
   "App_Hours": 31.064148966906384,
   "JobId": "13128",
   "Queue": "local",
   "User": "amd_app",
   "App": "ICEPAK",
   "JobDescription": "ICEPAK",
   "JobName": "cubevnc",
   "Cluster": "aip",
   "CPU_Cost": 1.5532074483453202,
   "Mem_Cost": 0,
   "GPU_Cost": 1.5532074483453202,
   "App_Cost": 0,
   "StartDate": "2020/10/09",
   "Project": "default"
  },
  {
   "CPU_Hours": 0.0002777777777777778,
   "Mem_GB_Hours": 0.000003882514105902777,
   "GPU_Hours": 0,
   "Runtime": 0.0002777777777777778,
   "App_Hours": 0.0002777777777777778,
   "JobId": "14718",
   "Queue": "q_x86_share",
   "User": "amd_app",
   "App": "Fluent",
   "JobDescription": "Fluent",
   "JobName": "cubevnc",
   "Cluster": "aip",
   "CPU_Cost": 0.0001388888888888889,
   "Mem_Cost": 0,
   "GPU_Cost": 0,
   "App_Cost": 0,
   "StartDate": "2020/10/27",
   "Project": "default"
  },
  {
   "CPU_Hours": 0.029166666666666667,
   "Mem_GB_Hours": 0.0006049315134684245,
   "GPU_Hours": 0,
   "Runtime": 0.029166666666666667,
   "App_Hours": 0.029166666666666667,
   "JobId": "13219",
   "Queue": "q_x86_share",
   "User": "amd_app",
   "App": "STARCCM+",
   "JobDescription": "Batch-STARCCM+",
   "JobName": "/home/export/online3/amd_share/shangruan/bin/starccmyaml /home/export/base/nsccwuxi_amd/amd_app/WORK/test/test_copy_4.sim",
   "Cluster": "aip",
   "CPU_Cost": 0.0014583333333333334,
   "Mem_Cost": 0,
   "GPU_Cost": 0,
   "App_Cost": 0.14583333333333334,
   "StartDate": "2020/10/12",
   "Project": "default"
  },
  {
   "CPU_Hours": 0.019444444444444445,
   "Mem_GB_Hours": 0.00009950531853569878,
   "GPU_Hours": 0,
   "Runtime": 0.009722222222222222,
   "App_Hours": 0.019444444444444445,
   "JobId": "13245",
   "Queue": "q_x86_share",
   "User": "amd_app",
   "App": "Abaqus",
   "JobDescription": "Batch-Abaqus",
   "JobName": "/home/export/online3/amd_share/shangruan/bin/abaqus614 /home/export/base/nsccwuxi_amd/amd_app/WORK/dzj/dzj/abaqustest/abaumat/riserdynamics_airy_disp.inp",
   "Cluster": "aip",
   "CPU_Cost": 0.0009722222222222223,
   "Mem_Cost": 0,
   "GPU_Cost": 0,
   "App_Cost": 0.04861111111111111,
   "StartDate": "2020/10/13",
   "Project": "default"
  },
  {
   "CPU_Hours": 0.0275,
   "Mem_GB_Hours": 0.0005702590942382813,
   "GPU_Hours": 0,
   "Runtime": 0.0275,
   "App_Hours": 0.0275,
   "JobId": "13196",
   "Queue": "q_x86_share",
   "User": "amd_app",
   "App": "STARCCM+",
   "JobDescription": "Batch-STARCCM+",
   "JobName": "/home/export/online3/amd_share/shangruan/bin/starccmyaml /home/export/base/nsccwuxi_amd/amd_app/WORK/test/test_copy_1.sim",
   "Cluster": "aip",
   "CPU_Cost": 0.0013750000000000001,
   "Mem_Cost": 0,
   "GPU_Cost": 0,
   "App_Cost": 0.1375,
   "StartDate": "2020/10/12",
   "Project": "default"
  },
  {
   "CPU_Hours": 0.03666666666666667,
   "Mem_GB_Hours": 0.01369572957356771,
   "GPU_Hours": 0.03666666666666667,
   "Runtime": 0.03666666666666667,
   "App_Hours": 0.03666666666666667,
   "JobId": "15095",
   "Queue": "local",
   "User": "amd_app",
   "App": "ParaView",
   "JobDescription": "ParaView",
   "JobName": "cubevnc",
   "Cluster": "aip",
   "CPU_Cost": 0.018333333333333333,
   "Mem_Cost": 0,
   "GPU_Cost": 0.018333333333333333,
   "App_Cost": 0,
   "StartDate": "2020/10/29",
   "Project": "default"
  },
  {
   "CPU_Hours": 0.6866666666666666,
   "Mem_GB_Hours": 0.002196279101901584,
   "GPU_Hours": 0,
   "Runtime": 0.02861111111111111,
   "App_Hours": 0.6866666666666666,
   "JobId": "13113",
   "Queue": "q_x86_cn_sim",
   "User": "amd_app",
   "App": "Fluent",
   "JobDescription": "fluent_test",
   "JobName": "cubevnc",
   "Cluster": "aip",
   "CPU_Cost": 0.034333333333333334,
   "Mem_Cost": 0,
   "GPU_Cost": 0,
   "App_Cost": 1.7166666666666666,
   "StartDate": "2020/10/08",
   "Project": "default"
  },
  {
   "CPU_Hours": 0.09222222222222222,
   "Mem_GB_Hours": 0.0023406124114990234,
   "GPU_Hours": 0,
   "Runtime": 0.023055555555555555,
   "App_Hours": 0.09222222222222222,
   "JobId": "14776",
   "Queue": "q_x86_expr",
   "User": "amd_app",
   "App": "Fluent",
   "JobDescription": "Fluent",
   "JobName": "cubevnc",
   "Cluster": "aip",
   "CPU_Cost": 0.04611111111111111,
   "Mem_Cost": 0,
   "GPU_Cost": 0,
   "App_Cost": 0,
   "StartDate": "2020/10/27",
   "Project": "default"
  },
  {
   "CPU_Hours": 0.7800300367666666,
   "Mem_GB_Hours": 0.018834596827883052,
   "GPU_Hours": 0,
   "Runtime": 0.19500750919166665,
   "App_Hours": 0.7800300367666666,
   "JobId": "13123",
   "Queue": "q_x86_cn_sim",
   "User": "amd_app",
   "App": "Fluent",
   "JobDescription": "Fluent_test",
   "JobName": "cubevnc",
   "Cluster": "aip",
   "CPU_Cost": 0.039001501838333334,
   "Mem_Cost": 0,
   "GPU_Cost": 0,
   "App_Cost": 1.9500750919166667,
   "StartDate": "2020/10/09",
   "Project": "default"
  },
  {
   "CPU_Hours": 2.8138493793733335,
   "Mem_GB_Hours": 0.004833140821421521,
   "GPU_Hours": 0,
   "Runtime": 0.05862186207027778,
   "App_Hours": 2.8138493793733335,
   "JobId": "13853",
   "Queue": "q_x86_cn_sim",
   "User": "amd_app",
   "App": "AnsysAPDL",
   "JobDescription": "AnsysAPDL",
   "JobName": "cubevnc",
   "Cluster": "aip",
   "CPU_Cost": 0.14069246896866666,
   "Mem_Cost": 0,
   "GPU_Cost": 0,
   "App_Cost": 0,
   "StartDate": "2020/10/20",
   "Project": "default"
  },
  {
   "CPU_Hours": 0.17834407172944444,
   "Mem_GB_Hours": 0.06567749291552795,
   "GPU_Hours": 0.17834407172944444,
   "Runtime": 0.17834407172944444,
   "App_Hours": 0.17834407172944444,
   "JobId": "13694",
   "Queue": "local",
   "User": "amd_app",
   "App": "CFX-pre",
   "JobDescription": "CFX-pre",
   "JobName": "cubevnc",
   "Cluster": "aip",
   "CPU_Cost": 0.008917203586472223,
   "Mem_Cost": 0,
   "GPU_Cost": 0.008917203586472223,
   "App_Cost": 0,
   "StartDate": "2020/10/19",
   "Project": "default"
  },
  {
   "CPU_Hours": 3.216525070041389,
   "Mem_GB_Hours": 0.6554250258285925,
   "GPU_Hours": 3.216525070041389,
   "Runtime": 3.216525070041389,
   "App_Hours": 3.216525070041389,
   "JobId": "13257",
   "Queue": "local",
   "User": "amd_app",
   "App": "TankSim",
   "JobDescription": "tank33",
   "JobName": "cubevnc",
   "Cluster": "aip",
   "CPU_Cost": 0.16082625350206947,
   "Mem_Cost": 0,
   "GPU_Cost": 0.16082625350206947,
   "App_Cost": 2.251567549028972,
   "StartDate": "2020/10/14",
   "Project": "default"
  },
  {
   "CPU_Hours": 0.5950380991547222,
   "Mem_GB_Hours": 0.5359340971846526,
   "GPU_Hours": 0.5950380991547222,
   "Runtime": 0.5950380991547222,
   "App_Hours": 0.5950380991547222,
   "JobId": "14095",
   "Queue": "local",
   "User": "amd_app",
   "App": "ParaView",
   "JobDescription": "ParaView",
   "JobName": "cubevnc",
   "Cluster": "aip",
   "CPU_Cost": 0.2975190495773611,
   "Mem_Cost": 0,
   "GPU_Cost": 0.2975190495773611,
   "App_Cost": 0,
   "StartDate": "2020/10/22",
   "Project": "default"
  },
  {
   "CPU_Hours": 0.21,
   "Mem_GB_Hours": 0.0005379295349121093,
   "GPU_Hours": 0,
   "Runtime": 0.0525,
   "App_Hours": 0.21,
   "JobId": "13242",
   "Queue": "q_x86_share",
   "User": "amd_app",
   "App": "AnsysAPDL",
   "JobDescription": "Batch-AnsysAPDL",
   "JobName": "/home/export/online3/amd_share/shangruan/ansys/csubansys /home/export/base/nsccwuxi_amd/amd_app/WORK/dzj/apdl/crankshaft/input_crankshaft.dat",
   "Cluster": "aip",
   "CPU_Cost": 0.0105,
   "Mem_Cost": 0,
   "GPU_Cost": 0,
   "App_Cost": 0,
   "StartDate": "2020/10/13",
   "Project": "default"
  },
  {
   "CPU_Hours": 4.001852473856944,
   "Mem_GB_Hours": 0.8846239013128814,
   "GPU_Hours": 4.001852473856944,
   "Runtime": 4.001852473856944,
   "App_Hours": 4.001852473856944,
   "JobId": "14105",
   "Queue": "local",
   "User": "amd_app",
   "App": "TankSim",
   "JobDescription": "TankSim",
   "JobName": "cubevnc",
   "Cluster": "aip",
   "CPU_Cost": 2.000926236928472,
   "Mem_Cost": 0,
   "GPU_Cost": 2.000926236928472,
   "App_Cost": 0,
   "StartDate": "2020/10/22",
   "Project": "default"
  },
  {
   "CPU_Hours": 0.03333333333333333,
   "Mem_GB_Hours": 0.000133514404296875,
   "GPU_Hours": 0,
   "Runtime": 0.016666666666666666,
   "App_Hours": 0.03333333333333333,
   "JobId": "14250",
   "Queue": "q_x86_share",
   "User": "amd_app",
   "App": "Abaqus",
   "JobDescription": "Batch-Abaqus",
   "JobName": "/home/export/online3/amd_share/shangruan/bin/abaqus614 /home/export/base/nsccwuxi_amd/amd_app/WORK/dzj/dzj/abaqustest/abaumat/riserdynamics_airy_disp.inp",
   "Cluster": "aip",
   "CPU_Cost": 0.016666666666666666,
   "Mem_Cost": 0,
   "GPU_Cost": 0,
   "App_Cost": 0,
   "StartDate": "2020/10/23",
   "Project": "default"
  },
  {
   "CPU_Hours": 0.007222222222222222,
   "Mem_GB_Hours": 0.0032365057203504774,
   "GPU_Hours": 0.007222222222222222,
   "Runtime": 0.007222222222222222,
   "App_Hours": 0.007222222222222222,
   "JobId": "14777",
   "Queue": "local",
   "User": "amd_app",
   "App": "FluentMeshing",
   "JobDescription": "FluentMeshing",
   "JobName": "cubevnc",
   "Cluster": "aip",
   "CPU_Cost": 0.003611111111111111,
   "Mem_Cost": 0,
   "GPU_Cost": 0.003611111111111111,
   "App_Cost": 0,
   "StartDate": "2020/10/27",
   "Project": "default"
  },
  {
   "CPU_Hours": 0.0025,
   "Mem_GB_Hours": 0.00002984046936035156,
   "GPU_Hours": 0,
   "Runtime": 0.0025,
   "App_Hours": 0.0025,
   "JobId": "14113",
   "Queue": "q_x86_share",
   "User": "amd_app",
   "App": "Tanksim",
   "JobDescription": "testsave",
   "JobName": "./fluidrun /home/export/base/nsccwuxi_amd/amd_app/online3/wxy/testsave TODO 2 2",
   "Cluster": "aip",
   "CPU_Cost": 0.00125,
   "Mem_Cost": 0,
   "GPU_Cost": 0,
   "App_Cost": 0,
   "StartDate": "2020/10/22",
   "Project": "default"
  },
  {
   "CPU_Hours": 0.0025,
   "Mem_GB_Hours": 0.000029544830322265625,
   "GPU_Hours": 0,
   "Runtime": 0.0025,
   "App_Hours": 0.0025,
   "JobId": "14111",
   "Queue": "q_x86_share",
   "User": "amd_app",
   "App": "Tanksim",
   "JobDescription": "testsave",
   "JobName": "./fluidrun /home/export/base/nsccwuxi_amd/amd_app/online3/wxy/testsave TODO 2 2",
   "Cluster": "aip",
   "CPU_Cost": 0.00125,
   "Mem_Cost": 0,
   "GPU_Cost": 0,
   "App_Cost": 0,
   "StartDate": "2020/10/22",
   "Project": "default"
  },
  {
[...]
   "Runtime": 0.004166666666666667,
   "App_Hours": 0.004166666666666667,
   "JobId": "13382",
   "Queue": "q_x86_share",
   "User": "amd_app",
   "App": "Fluent",
   "JobDescription": "Batch-Fluent",
   "JobName": "/home/export/base/nsccwuxi_amd/amd_app/amd_share/shangruan/bin/fluentyaml /home/export/base/nsccwuxi_amd/amd_app/WORK/Zhouhl/Project/SimGO/Fluent/mixing_tank/mixing_tank.jou 3ddp",
   "Cluster": "aip",
   "CPU_Cost": 0.00020833333333333335,
   "Mem_Cost": 0,
   "GPU_Cost": 0,
   "App_Cost": 0.010416666666666666,
   "StartDate": "2020/10/16",
   "Project": "default"
  },
  {
   "CPU_Hours": 0.559739153955,
   "Mem_GB_Hours": 0.34990854222732654,
   "GPU_Hours": 0.559739153955,
   "Runtime": 0.559739153955,
   "App_Hours": 0.559739153955,
   "JobId": "14089",
   "Queue": "local",
   "User": "amd_app",
   "App": "ParaView",
   "JobDescription": "ParaView",
   "JobName": "cubevnc",
   "Cluster": "aip",
   "CPU_Cost": 0.2798695769775,
   "Mem_Cost": 0,
   "GPU_Cost": 0.2798695769775,
   "App_Cost": 0,
   "StartDate": "2020/10/22",
   "Project": "default"
  },
  {
   "CPU_Hours": 215.39778553201114,
   "Mem_GB_Hours": 1.7347980193371626,
   "GPU_Hours": 0,
   "Runtime": 21.53977855320111,
   "App_Hours": 215.39778553201114,
   "JobId": "14085",
   "Queue": "q_x86_share",
   "User": "amd_app",
   "App": "AnsysAPDL",
   "JobDescription": "AnsysAPDL",
   "JobName": "cubevnc",
   "Cluster": "aip",
   "CPU_Cost": 107.69889276600557,
   "Mem_Cost": 0,
   "GPU_Cost": 0,
   "App_Cost": 0,
   "StartDate": "2020/10/22",
   "Project": "default"
  },
  {
   "CPU_Hours": 0.5222375589638889,
   "Mem_GB_Hours": 0.46875232439041603,
   "GPU_Hours": 0,
   "Runtime": 0.26111877948194445,
   "App_Hours": 0.5222375589638889,
   "JobId": "13143",
   "Queue": "q_x86_vio_share_plus",
   "User": "amd_app",
   "App": "StarCCM",
   "JobDescription": "starCCM_test",
   "JobName": "cubevnc",
   "Cluster": "aip",
   "CPU_Cost": 0.02611187794819445,
   "Mem_Cost": 0,
   "GPU_Cost": 0,
   "App_Cost": 1.827831456373611,
   "StartDate": "2020/10/09",
   "Project": "default"
  },
  {
   "CPU_Hours": 0.40666666666666673,
   "Mem_GB_Hours": 0.001367479960123698,
   "GPU_Hours": 0,
   "Runtime": 0.016944444444444446,
   "App_Hours": 0.40666666666666673,
   "JobId": "13418",
   "Queue": "q_x86_cn_sim",
   "User": "amd_app",
   "App": "AnsysAPDL",
   "JobDescription": "AnsysAPDL",
   "JobName": "cubevnc",
   "Cluster": "aip",
   "CPU_Cost": 0.02033333333333334,
   "Mem_Cost": 0,
   "GPU_Cost": 0,
   "App_Cost": 0,
   "StartDate": "2020/10/16",
   "Project": "default"
  },
  {
   "CPU_Hours": 0.36028924318916666,
   "Mem_GB_Hours": 0.004150671060300001,
   "GPU_Hours": 0,
   "Runtime": 0.36028924318916666,
   "App_Hours": 0.36028924318916666,
   "JobId": "14122",
   "Queue": "q_x86_share",
   "User": "amd_app",
   "App": "Tanksim",
   "JobDescription": "testsave",
   "JobName": "./fluidrun /home/export/base/nsccwuxi_amd/amd_app/online3/wxy/testsave TODO 2 2",
   "Cluster": "aip",
   "CPU_Cost": 0.18014462159458333,
   "Mem_Cost": 0,
   "GPU_Cost": 0,
   "App_Cost": 0,
   "StartDate": "2020/10/22",
   "Project": "default"
  },
  {
   "CPU_Hours": 0.04583333333333333,
   "Mem_GB_Hours": 0.003969748814900716,
   "GPU_Hours": 0,
   "Runtime": 0.04583333333333333,
   "App_Hours": 0.04583333333333333,
   "JobId": "13263",
   "Queue": "q_x86_cn_sim",
   "User": "amd_app",
   "App": "Fluent",
   "JobDescription": "fluent_test",
   "JobName": "cubevnc",
   "Cluster": "aip",
   "CPU_Cost": 0.0022916666666666667,
   "Mem_Cost": 0,
   "GPU_Cost": 0,
   "App_Cost": 0.11458333333333333,
   "StartDate": "2020/10/14",
   "Project": "default"
  },
  {
   "CPU_Hours": 0.0125,
   "Mem_GB_Hours": 0.0002593994140625,
   "GPU_Hours": 0,
   "Runtime": 0.0125,
   "App_Hours": 0.0125,
   "JobId": "13218",
   "Queue": "q_x86_share",
   "User": "amd_app",
   "App": "STARCCM+",
   "JobDescription": "Batch-STARCCM+",
   "JobName": "/home/export/online3/amd_share/shangruan/bin/starccmyaml /home/export/base/nsccwuxi_amd/amd_app/WORK/test/test_copy_6.sim",
   "Cluster": "aip",
   "CPU_Cost": 0.0006250000000000001,
   "Mem_Cost": 0,
   "GPU_Cost": 0,
   "App_Cost": 0.0625,
   "StartDate": "2020/10/12",
   "Project": "default"
  },
  {
   "CPU_Hours": 0.002777777777777778,
   "Mem_GB_Hours": 0.00016696718004014757,
   "GPU_Hours": 0,
   "Runtime": 0.002777777777777778,
   "App_Hours": 0.002777777777777778,
   "JobId": "15085",
   "Queue": "q_x86_cn_sim",
   "User": "amd_app",
   "App": "ICESimulator",
   "JobName": "/home/export/online3/amd_share/anaconda/bin/python3 /home/export/online3/amd_app/wxy/cas2fe/generate.py /home/export/online3/amd_app/wxy/foamextend_project/icepak_test jixiang_nomerge.cas",
   "Cluster": "aip",
   "CPU_Cost": 0.001388888888888889,
   "Mem_Cost": 0,
   "GPU_Cost": 0,
   "App_Cost": 0,
   "StartDate": "2020/10/29",
   "Project": "default"
  },
  {
   "CPU_Hours": 0.0016666666666666668,
   "Mem_GB_Hours": 0.000016829172770182293,
   "GPU_Hours": 0,
   "Runtime": 0.0016666666666666668,
   "App_Hours": 0.0016666666666666668,
   "JobId": "13149",
   "Queue": "q_x86_cn_sim",
   "User": "amd_app",
   "App": "Fluent",
   "JobDescription": "Fluent_test",
   "JobName": "cubevnc",
   "Cluster": "aip",
   "CPU_Cost": 0.00008333333333333334,
   "Mem_Cost": 0,
   "GPU_Cost": 0,
   "App_Cost": 0.004166666666666667,
   "StartDate": "2020/10/09",
   "Project": "default"
  },
  {
   "CPU_Hours": 0.38666666666666666,
   "Mem_GB_Hours": 0.0012693129645453558,
   "GPU_Hours": 0,
   "Runtime": 0.01611111111111111,
   "App_Hours": 0.38666666666666666,
   "JobId": "13171",
   "Queue": "q_x86_cn_sim",
   "User": "amd_app",
   "App": "AnsysAPDL",
   "JobDescription": "AnsysAPDL",
   "JobName": "cubevnc",
   "Cluster": "aip",
   "CPU_Cost": 0.019333333333333334,
   "Mem_Cost": 0,
   "GPU_Cost": 0,
   "App_Cost": 0,
   "StartDate": "2020/10/10",
   "Project": "default"
  },
  {
   "CPU_Hours": 0.05305555555555556,
   "Mem_GB_Hours": 0.018219227261013455,
   "GPU_Hours": 0.05305555555555556,
   "Runtime": 0.05305555555555556,
   "App_Hours": 0.05305555555555556,
   "JobId": "14063",
   "Queue": "local",
   "User": "amd_app",
   "App": "LSPrePost",
   "JobDescription": "LSPrePost",
   "JobName": "cubevnc",
   "Cluster": "aip",
   "CPU_Cost": 0.02652777777777778,
   "Mem_Cost": 0,
   "GPU_Cost": 0.02652777777777778,
   "App_Cost": 0,
   "StartDate": "2020/10/22",
   "Project": "default"
  },
  {
   "CPU_Hours": 0.01888888888888889,
   "Mem_GB_Hours": 0.00035141415066189234,
   "GPU_Hours": 0,
   "Runtime": 0.01888888888888889,
   "App_Hours": 0.01888888888888889,
   "JobId": "14102",
   "Queue": "q_x86_share",
   "User": "amd_app",
   "App": "SWOF",
   "JobName": "swof_/home/export/base/nsccwuxi_amd/amd_app/WORK/Zhouhl/Project/OF/OpenFOAM-GUI/OF-GUI_Test/Test_0418/tutorial/hotRoom_Check21855",
   "Cluster": "aip",
   "CPU_Cost": 0.009444444444444445,
   "Mem_Cost": 0,
   "GPU_Cost": 0,
   "App_Cost": 0,
   "StartDate": "2020/10/22",
   "Project": "default"
  },
  {
   "CPU_Hours": 0.005555555555555556,
   "Mem_GB_Hours": 0.00011541578504774306,
   "GPU_Hours": 0,
   "Runtime": 0.005555555555555556,
   "App_Hours": 0.005555555555555556,
   "JobId": "13160",
   "Queue": "q_x86_share",
   "User": "amd_app",
   "App": "Fluent",
   "JobDescription": "Batch-Fluent",
   "JobName": "/home/export/base/nsccwuxi_amd/amd_app/amd_share/shangruan/bin/fluentyaml /home/export/base/nsccwuxi_amd/amd_app/WORK/Zhouhl/Project/SimGO/Fluent/mixing_tank/mixing_tank.jou 3ddp",
   "Cluster": "aip",
   "CPU_Cost": 0.0002777777777777778,
   "Mem_Cost": 0,
   "GPU_Cost": 0,
   "App_Cost": 0.01388888888888889,
   "StartDate": "2020/10/09",
   "Project": "default"
  },
  {
   "CPU_Hours": 77.98967189365553,
   "Mem_GB_Hours": 41.34681278194756,
   "GPU_Hours": 77.98967189365553,
   "Runtime": 77.98967189365553,
   "App_Hours": 77.98967189365553,
   "JobId": "13131",
   "Queue": "local",
   "User": "amd_app",
   "App": "Abaqus",
   "JobDescription": "Abaqus",
   "JobName": "cubevnc",
   "Cluster": "aip",
   "CPU_Cost": 3.899483594682777,
   "Mem_Cost": 0,
   "GPU_Cost": 3.899483594682777,
   "App_Cost": 194.97417973413908,
   "StartDate": "2020/10/09",
   "Project": "default"
  },
  {
   "CPU_Hours": 0.0002777777777777778,
   "Mem_GB_Hours": 0.000002995596991644965,
   "GPU_Hours": 0,
   "Runtime": 0.0002777777777777778,
   "App_Hours": 0.0002777777777777778,
   "JobId": "13179",
   "Queue": "",
   "User": "amd_app",
   "App": "Hypermesh",
   "JobDescription": "Hypermesh",
   "Cluster": "aip",
   "CPU_Cost": 0.000008333333333333334,
   "Mem_Cost": 0,
   "GPU_Cost": 0,
   "App_Cost": 0,
   "StartDate": "2020/10/10"
  },
  {
   "CPU_Hours": 0.050287581049722224,
   "Mem_GB_Hours": 0.009649224477536715,
   "GPU_Hours": 0.050287581049722224,
   "Runtime": 0.050287581049722224,
   "App_Hours": 0.050287581049722224,
   "JobId": "14995",
   "Queue": "local",
   "User": "amd_app",
   "App": "TankSim",
   "JobDescription": "TankSim",
   "JobName": "cubevnc",
   "Cluster": "aip",
   "CPU_Cost": 0.025143790524861112,
   "Mem_Cost": 0,
   "GPU_Cost": 0.025143790524861112,
   "App_Cost": 0,
   "StartDate": "2020/10/28",
   "Project": "default"
  },
  {
   "CPU_Hours": 0.013888888888888888,
   "Mem_GB_Hours": 0.00007107522752549913,
   "GPU_Hours": 0,
   "Runtime": 0.006944444444444444,
   "App_Hours": 0.013888888888888888,
   "JobId": "13291",
   "Queue": "q_x86_share",
   "User": "amd_app",
   "App": "Abaqus",
   "JobDescription": "Batch-Abaqus",
   "JobName": "/home/export/online3/amd_share/shangruan/bin/abaqus614 /home/export/base/nsccwuxi_amd/amd_app/WORK/dzj/dzj/abaqustest/abaumat/riserdynamics_airy_disp.inp",
   "Cluster": "aip",
   "CPU_Cost": 0.0006944444444444445,
   "Mem_Cost": 0,
   "GPU_Cost": 0,
   "App_Cost": 0.034722222222222224,
   "StartDate": "2020/10/15",
   "Project": "default"
  },
  {
   "CPU_Hours": 1.000594151293889,
   "Mem_GB_Hours": 0.33126968620881386,
   "GPU_Hours": 0,
   "Runtime": 0.5002970756469445,
   "App_Hours": 1.000594151293889,
   "JobId": "13620",
   "Queue": "q_x86_vio_share_plus",
   "User": "amd_app",
   "App": "StarCCM",
   "JobDescription": "StarCCM",
   "JobName": "cubevnc",
   "Cluster": "aip",
   "CPU_Cost": 0.050029707564694444,
   "Mem_Cost": 0,
   "GPU_Cost": 0,
   "App_Cost": 3.5020795295286113,
   "StartDate": "2020/10/18",
   "Project": "default"
  },
  {
   "CPU_Hours": 0.0016666666666666668,
   "Mem_GB_Hours": 0.00009267807006835938,
   "GPU_Hours": 0,
   "Runtime": 0.0016666666666666668,
   "App_Hours": 0.0016666666666666668,
   "JobId": "14157",
   "Queue": "q_x86_cn_sim",
   "User": "amd_app",
   "App": "ICESimulator",
   "JobName": "/home/export/online3/amd_share/anaconda/bin/python3 /home/export/online3/amd_app/wxy/cas2fe/generate.py /home/export/online3/amd_app/wxy/foamextend_project/icepak_test jixiang_nomerge.cas",
   "Cluster": "aip",
   "CPU_Cost": 0.0008333333333333334,
   "Mem_Cost": 0,
   "GPU_Cost": 0,
   "App_Cost": 0,
   "StartDate": "2020/10/22",
   "Project": "default"
  },
  {
   "CPU_Hours": 0.003611111111111111,
   "Mem_GB_Hours": 0.0015904267628987629,
   "GPU_Hours": 0.003611111111111111,
   "Runtime": 0.003611111111111111,
   "App_Hours": 0.003611111111111111,
   "JobId": "13385",
   "Queue": "local",
   "User": "amd_app",
   "App": "Abaqus",
   "JobDescription": "Abaqus",
   "JobName": "cubevnc",
   "Cluster": "aip",
   "CPU_Cost": 0.00018055555555555555,
   "Mem_Cost": 0,
   "GPU_Cost": 0.00018055555555555555,
   "App_Cost": 0.009027777777777777,
   "StartDate": "2020/10/16",
   "Project": "default"
  },
  {
   "CPU_Hours": 0.008055555555555555,
   "Mem_GB_Hours": 0.00016000853644476996,
   "GPU_Hours": 0,
   "Runtime": 0.008055555555555555,
   "App_Hours": 0.008055555555555555,
   "JobId": "13830",
   "Queue": "q_x86_share",
   "User": "amd_app",
   "App": "Tanksimulator-Openfoam",
   "JobDescription": "Study1",
   "JobName": "./fluidrun /home/export/base/nsccwuxi_amd/amd_app/WORK/mzy/Study1 TODO 2 6",
   "Cluster": "aip",
   "CPU_Cost": 0.0004027777777777778,
   "Mem_Cost": 0,
   "GPU_Cost": 0,
   "App_Cost": 0,
   "StartDate": "2020/10/20",
   "Project": "default"
  },
  {
   "CPU_Hours": 0,
   "Mem_GB_Hours": 0,
   "GPU_Hours": 0,
   "Runtime": 0,
   "App_Hours": 0,
   "JobId": "13249",
   "Queue": "q_x86_share",
   "User": "amd_app",
   "App": "CFX",
   "JobDescription": "Batch-CFX",
   "JobName": "/home/export/online3/amd_share/shangruan/bin/cfxyaml /home/export/base/nsccwuxi_amd/amd_app/WORK/Zhouhl/Project/SimGO/CFX/StaticMixer.def /home/export/base/nsccwuxi_amd/amd_app/WORK/Zhouhl/Project/SimGO/CFX/StaticMixer_2_001.res yes",
   "Cluster": "aip",
   "CPU_Cost": 0,
   "Mem_Cost": 0,
   "GPU_Cost": 0,
   "App_Cost": 0,
   "StartDate": "2020/10/13",
   "Project": "default"
  },
  {
   "CPU_Hours": 0.015277777777777777,
   "Mem_GB_Hours": 0.0003170437282986111,
   "GPU_Hours": 0,
   "Runtime": 0.015277777777777777,
   "App_Hours": 0.015277777777777777,
   "JobId": "13201",
   "Queue": "q_x86_share",
   "User": "amd_app",
   "App": "STARCCM+",
   "JobDescription": "Batch-STARCCM+",
   "JobName": "/home/export/online3/amd_share/shangruan/bin/starccmyaml /home/export/base/nsccwuxi_amd/amd_app/WORK/test/test_copy_5.sim",
   "Cluster": "aip",
   "CPU_Cost": 0.0007638888888888889,
   "Mem_Cost": 0,
   "GPU_Cost": 0,
   "App_Cost": 0.07638888888888888,
   "StartDate": "2020/10/12",
   "Project": "default"
  },
  {
   "CPU_Hours": 27.57346503171111,
   "Mem_GB_Hours": 13.910134943329796,
   "GPU_Hours": 27.57346503171111,
   "Runtime": 27.57346503171111,
   "App_Hours": 27.57346503171111,
   "JobId": "13146",
   "Queue": "local",
   "User": "amd_app",
   "App": "ParaView",
   "JobDescription": "ParaView",
   "JobName": "cubevnc",
   "Cluster": "aip",
   "CPU_Cost": 1.3786732515855558,
   "Mem_Cost": 0,
   "GPU_Cost": 1.3786732515855558,
   "App_Cost": 9.650712761098891,
   "StartDate": "2020/10/09",
   "Project": "default"
  },
  {
   "CPU_Hours": 0.2727777777777778,
   "Mem_GB_Hours": 0.0160028436448839,
   "GPU_Hours": 0,
   "Runtime": 0.1363888888888889,
   "App_Hours": 0.2727777777777778,
   "JobId": "13112",
   "Queue": "q_x86_vio_share_plus",
   "User": "amd_app",
   "App": "StarCCM",
   "JobDescription": "starccm_test",
   "JobName": "cubevnc",
   "Cluster": "aip",
   "CPU_Cost": 0.01363888888888889,
   "Mem_Cost": 0,
   "GPU_Cost": 0,
   "App_Cost": 0.9547222222222222,
   "StartDate": "2020/10/08",
   "Project": "default"
  },
  {
   "CPU_Hours": 85.65956012499299,
   "Mem_GB_Hours": 29.96411479677988,
   "GPU_Hours": 85.65956012499299,
   "Runtime": 85.65956012499299,
   "App_Hours": 85.65956012499299,
   "JobId": "13220",
   "Queue": "local",
   "User": "amd_app",
   "App": "PointWise",
   "JobDescription": "PW",
   "JobName": "cubevnc",
   "Cluster": "aip",
   "CPU_Cost": 4.282978006249654,
   "Mem_Cost": 0,
   "GPU_Cost": 4.282978006249654,
   "App_Cost": 299.8084604374755,
   "StartDate": "2020/10/12",
   "Project": "default"
  },
  {
   "CPU_Hours": 8.004213548227222,
   "Mem_GB_Hours": 0.4514604671768003,
   "GPU_Hours": 0,
   "Runtime": 4.002106774113611,
   "App_Hours": 8.004213548227222,
   "JobId": "14665",
   "Queue": "q_x86_share_plus",
   "User": "amd_app",
   "App": "StarCCM",
   "JobDescription": "StarCCM",
   "JobName": "cubevnc",
   "Cluster": "aip",
   "CPU_Cost": 4.002106774113611,
   "Mem_Cost": 0,
   "GPU_Cost": 0,
   "App_Cost": 0,
   "StartDate": "2020/10/26",
   "Project": "default"
  },
  {
   "CPU_Hours": 4.001275390786111,
   "Mem_GB_Hours": 0.8045868389959304,
   "GPU_Hours": 4.001275390786111,
   "Runtime": 4.001275390786111,
   "App_Hours": 4.001275390786111,
   "JobId": "13298",
   "Queue": "local",
   "User": "amd_app",
   "App": "TankSim",
   "JobDescription": "TankSim",
   "JobName": "cubevnc",
   "Cluster": "aip",
   "CPU_Cost": 0.20006376953930557,
   "Mem_Cost": 0,
   "GPU_Cost": 0.20006376953930557,
   "App_Cost": 2.800892773550278,
   "StartDate": "2020/10/15",
   "Project": "default"
  },
  {
   "CPU_Hours": 4.534910160138056,
   "Mem_GB_Hours": 0.8522584140478758,
   "GPU_Hours": 4.534910160138056,
   "Runtime": 4.534910160138056,
   "App_Hours": 4.534910160138056,
   "JobId": "13985",
   "Queue": "local",
   "User": "amd_app",
   "App": "TankSim",
   "JobDescription": "TankSim",
   "JobName": "cubevnc",
   "Cluster": "aip",
   "CPU_Cost": 2.267455080069028,
   "Mem_Cost": 0,
   "GPU_Cost": 2.267455080069028,
   "App_Cost": 0,
   "StartDate": "2020/10/21",
   "Project": "default"
  },
  {
   "CPU_Hours": 0.0002777777777777778,
   "Mem_GB_Hours": 0.0000028430091010199654,
   "GPU_Hours": 0,
   "Runtime": 0.0002777777777777778,
   "App_Hours": 0.0002777777777777778,
   "JobId": "13246",
   "Queue": "q_x86_share",
   "User": "amd_app",
   "App": "CFX",
   "JobDescription": "Batch-CFX",
   "JobName": "/home/export/online3/amd_share/shangruan/bin/cfxyaml /home/export/base/nsccwuxi_amd/amd_app/WORK/Zhouhl/Project/SimGO/CFX/StaticMixer.def /home/export/base/nsccwuxi_amd/amd_app/WORK/Zhouhl/Project/SimGO/CFX/StaticMixer_2_001.res yes",
   "Cluster": "aip",
   "CPU_Cost": 0.00001388888888888889,
   "Mem_Cost": 0,
   "GPU_Cost": 0,
   "App_Cost": 0,
   "StartDate": "2020/10/13",
   "Project": "default"
  },
  {
   "CPU_Hours": 0.012777777777777779,
   "Mem_GB_Hours": 0.004299992455376519,
   "GPU_Hours": 0.012777777777777779,
   "Runtime": 0.012777777777777779,
   "App_Hours": 0.012777777777777779,
   "JobId": "14064",
   "Queue": "local",
   "User": "amd_app",
   "App": "LSPrePost",
   "JobDescription": "LSPrePost",
   "JobName": "cubevnc",
   "Cluster": "aip",
   "CPU_Cost": 0.006388888888888889,
   "Mem_Cost": 0,
   "GPU_Cost": 0.006388888888888889,
   "App_Cost": 0,
   "StartDate": "2020/10/22",
   "Project": "default"
  },
  {
   "CPU_Hours": 0.3705623964522222,
   "Mem_GB_Hours": 0.34770415279522315,
   "GPU_Hours": 0.3705623964522222,
   "Runtime": 0.3705623964522222,
   "App_Hours": 0.3705623964522222,
   "JobId": "13188",
   "Queue": "local",
   "User": "amd_app",
   "App": "Hypermesh",
   "JobDescription": "Hypermesh",
   "JobName": "cubevnc",
   "Cluster": "aip",
   "CPU_Cost": 0.018528119822611114,
   "Mem_Cost": 0,
   "GPU_Cost": 0.018528119822611114,
   "App_Cost": 0,
   "StartDate": "2020/10/12",
   "Project": "default"
  },
  {
   "CPU_Hours": 4.0015503466275,
   "Mem_GB_Hours": 3.48046265118914,
   "GPU_Hours": 4.0015503466275,
   "Runtime": 4.0015503466275,
   "App_Hours": 4.0015503466275,
   "JobId": "13254",
   "Queue": "local",
   "User": "amd_app",
   "App": "ParaView",
   "JobDescription": "ParaView",
   "JobName": "cubevnc",
   "Cluster": "aip",
   "CPU_Cost": 0.20007751733137502,
   "Mem_Cost": 0,
   "GPU_Cost": 0.20007751733137502,
   "App_Cost": 1.400542621319625,
   "StartDate": "2020/10/14",
   "Project": "default"
  },
  {
   "CPU_Hours": 0.012222222222222223,
   "Mem_GB_Hours": 0.00025358835856119794,
   "GPU_Hours": 0,
   "Runtime": 0.012222222222222223,
   "App_Hours": 0.012222222222222223,
   "JobId": "13216",
   "Queue": "q_x86_share",
   "User": "amd_app",
   "App": "STARCCM+",
   "JobDescription": "123",
   "JobName": "/home/export/online3/amd_share/shangruan/bin/starccmyaml /home/export/base/nsccwuxi_amd/amd_app/WORK/test/test_copy_10.sim",
   "Cluster": "aip",
   "CPU_Cost": 0.0006111111111111112,
   "Mem_Cost": 0,
   "GPU_Cost": 0,
   "App_Cost": 0.061111111111111116,
   "StartDate": "2020/10/12",
   "Project": "default"
  },
  {
   "CPU_Hours": 0,
   "Mem_GB_Hours": 0,
   "GPU_Hours": 0,
   "Runtime": 0,
   "App_Hours": 0,
   "JobId": "13239",
   "Queue": "q_x86_expr",
   "User": "amd_app",
   "App": "AnsysAPDL",
   "JobDescription": "Batch-AnsysAPDL",
   "JobName": "/home/export/online3/amd_share/shangruan/ansys/csubansys /home/export/base/nsccwuxi_amd/amd_app/WORK/dzj/apdl/crankshaft/input_crankshaft.dat",
   "Cluster": "aip",
   "CPU_Cost": 0,
   "Mem_Cost": 0,
   "GPU_Cost": 0,
   "App_Cost": 0,
   "StartDate": "2020/10/13",
   "Project": "default"
  }
 ]
}