{"GPU_Hours":0.63944444444444,"App_Hours":{"Abaqus":{"Hours":0.41583333333333,"UnitPrice":5,"Cost":2.0791666666667},"LSPrePost":{"Hours":0.22361111111111,"UnitPrice":0,"Cost":0},"Abaqus614\u63d0\u4ea4inp\u591a\u8282\u70b9":{"Hours":71.626666666667,"UnitPrice":0,"Cost":0},"Abaqus2017":{"Hours":34.24,"UnitPrice":5,"Cost":171.2},"LS-DYNA":{"Hours":7.9266666666667,"UnitPrice":5,"Cost":39.633333333333}},"Month":"2020-08","CPU_Hours":114.43277777778,"Users":{"simforge11":256.15623898209},"Mem_GB_Hours":0.32961204316881,"App_Cost":212.9125,"Mem_Cost":0.032961204316881,"GPU_Cost":0.31972222222222,"Total_Cost":256.15623898209,"CPU_Cost":42.891055555556,"Details":[{"EndDate":"2020\/08\/14","GPU_Hours":0.115,"App":"Abaqus","JobName":"cubevnc","JobId":"7863","Queue":"local","Cluster":"aip","CPU_Hours":0.115,"User":"simforge11","Mem_GB_Hours":0.087069473266602,"runTime":0.115,"JobDescription":"lattice2","GPU_Cost":0.0575,"CPU_Cost":0.0575,"Mem_Cost":0.0087069473266602,"App_Cost":0.575},{"EndDate":"2020\/08\/14","GPU_Hours":0.15472222222222,"App":"LSPrePost","JobName":"cubevnc","JobId":"7865","Queue":"local","Cluster":"aip","CPU_Hours":0.15472222222222,"User":"simforge11","Mem_GB_Hours":0.057807174258762,"runTime":0.15472222222222,"JobDescription":"dyna","GPU_Cost":0.077361111111111,"CPU_Cost":0.077361111111111,"Mem_Cost":0.0057807174258762,"App_Cost":0},{"EndDate":"2020\/08\/14","GPU_Hours":0,"App":"Abaqus614\u63d0\u4ea4inp\u591a\u8282\u70b9","JobName":"","JobId":"7861","Queue":"q_x86_vio_share","Cluster":"aip","CPU_Hours":71.626666666667,"User":"simforge11","Mem_GB_Hours":0.031797612508138,"runTime":2.9844444444444,"JobDescription":"lattice","GPU_Cost":0,"CPU_Cost":21.488,"Mem_Cost":0.0031797612508138,"App_Cost":0},{"EndDate":"2020\/08\/14","GPU_Hours":0,"App":"Abaqus2017","JobName":"Job-113829","JobId":"7864","Queue":"q_x86_expr","Cluster":"aip","CPU_Hours":34.24,"User":"simforge11","Mem_GB_Hours":0.015265655517578,"runTime":1.4266666666667,"JobDescription":"Job-113829-Job-lattice","GPU_Cost":0,"CPU_Cost":17.12,"Mem_Cost":0.0015265655517578,"App_Cost":171.2},{"EndDate":"2020\/08\/14","GPU_Hours":0.068888888888889,"App":"LSPrePost","JobName":"cubevnc","JobId":"7885","Queue":"local","Cluster":"aip","CPU_Hours":0.068888888888889,"User":"simforge11","Mem_GB_Hours":0.01400750901964,"runTime":0.068888888888889,"JobDescription":"xx","GPU_Cost":0.034444444444444,"CPU_Cost":0.034444444444444,"Mem_Cost":0.001400750901964,"App_Cost":0},{"EndDate":"2020\/08\/14","GPU_Hours":0,"App":"LS-DYNA","JobName":"\/home\/export\/base\/nsccwuxi_amd\/simforge11\/WORK\/dyna\/Cab.k","JobId":"7867","Queue":"q_x86_expr","Cluster":"aip","CPU_Hours":7.9266666666667,"User":"simforge11","Mem_GB_Hours":0.00358444319831,"runTime":0.33027777777778,"JobDescription":"Cab.k","GPU_Cost":0,"CPU_Cost":3.9633333333333,"Mem_Cost":0.000358444319831,"App_Cost":39.633333333333},{"EndDate":"2020\/08\/14","GPU_Hours":0.30083333333333,"App":"Abaqus","JobName":"cubevnc","JobId":"7886","Queue":"local","Cluster":"aip","CPU_Hours":0.30083333333333,"User":"simforge11","Mem_GB_Hours":0.12008017539978,"runTime":0.30083333333333,"JobDescription":"aba","GPU_Cost":0.15041666666667,"CPU_Cost":0.15041666666667,"Mem_Cost":0.012008017539978,"App_Cost":1.5041666666667}],"User":"simforge11"}