{"GPU_Hours":7.7911111111111,"App_Hours":{"TankSim":{"Hours":440.0075,"UnitPrice":1,"Cost":440.0075},"Abaqus":{"Hours":71.740555555556,"UnitPrice":5,"Cost":358.70277777778},"PointWise":{"Hours":13.948055555556,"UnitPrice":5,"Cost":69.740277777778},"ParaView":{"Hours":188.67833333333,"UnitPrice":0.5,"Cost":94.339166666667},"LSPrePost":{"Hours":225.49638888889,"UnitPrice":0,"Cost":0},"ICEM-CFD":{"Hours":46.168611111111,"UnitPrice":5,"Cost":230.84305555556},"LS-DYNA-R10double":{"Hours":4.6477777777778,"UnitPrice":0,"Cost":0},"Fluent":{"Hours":23.603333333333,"UnitPrice":5,"Cost":118.01666666667},"Tanksimulator-Calculix":{"Hours":1.0038888888889,"UnitPrice":0,"Cost":0},"Tanksimulator-Openfoam":{"Hours":1.0075,"UnitPrice":0,"Cost":0},"StarCCM":{"Hours":67.380277777778,"UnitPrice":5,"Cost":336.90138888889},"interFoam":{"Hours":14.106666666667,"UnitPrice":0,"Cost":0}},"Month":"2020-07","CPU_Hours":1097.8622222222,"Users":{"simforgetest3":2235.0701126237},"Mem_GB_Hours":336.996681793,"App_Cost":1648.5508333333,"Mem_Cost":33.6996681793,"GPU_Cost":3.8955555555556,"Total_Cost":2235.0701126237,"CPU_Cost":548.92405555556,"Details":[{"EndDate":"2020\/07\/01","GPU_Hours":0,"App":"TankSim","JobName":"cubevnc","JobId":"2787","Queue":"q_x86_share","Cluster":"aip","CPU_Hours":0.0052777777777778,"User":"simforgetest3","Mem_GB_Hours":0.00059656461079915,"runTime":0.0052777777777778,"JobDescription":"tanksim_test2","GPU_Cost":0,"CPU_Cost":0.0026388888888889,"Mem_Cost":5.9656461079915e-5,"App_Cost":0.0052777777777778},{"EndDate":"2020\/07\/01","GPU_Hours":0,"App":"TankSim","JobName":"cubevnc","JobId":"2789","Queue":"q_x86_share","Cluster":"aip","CPU_Hours":0.0061111111111111,"User":"simforgetest3","Mem_GB_Hours":0.00073160171508789,"runTime":0.0061111111111111,"JobDescription":"tank03","GPU_Cost":0,"CPU_Cost":0.0030555555555556,"Mem_Cost":7.3160171508789e-5,"App_Cost":0.0061111111111111},{"EndDate":"2020\/07\/01","GPU_Hours":0,"App":"TankSim","JobName":"cubevnc","JobId":"2697","Queue":"q_x86_expr","Cluster":"aip","CPU_Hours":17.896111111111,"User":"simforgetest3","Mem_GB_Hours":3.2522992451986,"runTime":17.896111111111,"JobDescription":"instance1","GPU_Cost":0,"CPU_Cost":8.9480555555556,"Mem_Cost":0.32522992451986,"App_Cost":17.896111111111},{"EndDate":"2020\/07\/01","GPU_Hours":0,"App":"TankSim","JobName":"cubevnc","JobId":"2790","Queue":"q_x86_expr","Cluster":"aip","CPU_Hours":0.005,"User":"simforgetest3","Mem_GB_Hours":0.00059925079345703,"runTime":0.005,"JobDescription":"tanfix01","GPU_Cost":0,"CPU_Cost":0.0025,"Mem_Cost":5.9925079345703e-5,"App_Cost":0.005},{"EndDate":"2020\/07\/01","GPU_Hours":0,"App":"TankSim","JobName":"cubevnc","JobId":"2795","Queue":"q_x86_expr","Cluster":"aip","CPU_Hours":0.0052777777777778,"User":"simforgetest3","Mem_GB_Hours":0.00059906111823188,"runTime":0.0052777777777778,"JobDescription":"tansim02","GPU_Cost":0,"CPU_Cost":0.0026388888888889,"Mem_Cost":5.9906111823188e-5,"App_Cost":0.0052777777777778},{"EndDate":"2020\/07\/01","GPU_Hours":0,"App":"TankSim","JobName":"cubevnc","JobId":"2797","Queue":"q_x86_expr","Cluster":"aip","CPU_Hours":0.0052777777777778,"User":"simforgetest3","Mem_GB_Hours":0.00063385115729438,"runTime":0.0052777777777778,"JobDescription":"tanksim01","GPU_Cost":0,"CPU_Cost":0.0026388888888889,"Mem_Cost":6.3385115729438e-5,"App_Cost":0.0052777777777778},{"EndDate":"2020\/07\/01","GPU_Hours":0,"App":"TankSim","JobName":"cubevnc","JobId":"2800","Queue":"q_x86_expr","Cluster":"aip","CPU_Hours":0.0052777777777778,"User":"simforgetest3","Mem_GB_Hours":0.0006004704369439,"runTime":0.0052777777777778,"JobDescription":"tanksim01","GPU_Cost":0,"CPU_Cost":0.0026388888888889,"Mem_Cost":6.004704369439e-5,"App_Cost":0.0052777777777778},{"EndDate":"2020\/07\/01","GPU_Hours":0,"App":"TankSim","JobName":"cubevnc","JobId":"2804","Queue":"q_x86_expr","Cluster":"aip","CPU_Hours":0.0052777777777778,"User":"simforgetest3","Mem_GB_Hours":0.00060693316989475,"runTime":0.0052777777777778,"JobDescription":"tanksim01","GPU_Cost":0,"CPU_Cost":0.0026388888888889,"Mem_Cost":6.0693316989475e-5,"App_Cost":0.0052777777777778},{"EndDate":"2020\/07\/01","GPU_Hours":0,"App":"TankSim","JobName":"cubevnc","JobId":"2806","Queue":"q_x86_expr","Cluster":"aip","CPU_Hours":0.0052777777777778,"User":"simforgetest3","Mem_GB_Hours":0.00063054932488336,"runTime":0.0052777777777778,"JobDescription":"tanksim02","GPU_Cost":0,"CPU_Cost":0.0026388888888889,"Mem_Cost":6.3054932488335e-5,"App_Cost":0.0052777777777778},{"EndDate":"2020\/07\/01","GPU_Hours":0,"App":"TankSim","JobName":"cubevnc","JobId":"2807","Queue":"q_x86_expr","Cluster":"aip","CPU_Hours":0.0052777777777778,"User":"simforgetest3","Mem_GB_Hours":0.0006198787689209,"runTime":0.0052777777777778,"JobDescription":"tanksim01","GPU_Cost":0,"CPU_Cost":0.0026388888888889,"Mem_Cost":6.198787689209e-5,"App_Cost":0.0052777777777778},{"EndDate":"2020\/07\/01","GPU_Hours":0,"App":"TankSim","JobName":"cubevnc","JobId":"2809","Queue":"q_x86_expr","Cluster":"aip","CPU_Hours":0.0052777777777778,"User":"simforgetest3","Mem_GB_Hours":0.00062050289577908,"runTime":0.0052777777777778,"JobDescription":"tanksim02","GPU_Cost":0,"CPU_Cost":0.0026388888888889,"Mem_Cost":6.2050289577908e-5,"App_Cost":0.0052777777777778},{"EndDate":"2020\/07\/01","GPU_Hours":0,"App":"TankSim","JobName":"cubevnc","JobId":"2810","Queue":"q_x86_expr","Cluster":"aip","CPU_Hours":0.0052777777777778,"User":"simforgetest3","Mem_GB_Hours":0.00063056945800781,"runTime":0.0052777777777778,"JobDescription":"qiuxiao","GPU_Cost":0,"CPU_Cost":0.0026388888888889,"Mem_Cost":6.3056945800781e-5,"App_Cost":0.0052777777777778},{"EndDate":"2020\/07\/01","GPU_Hours":0,"App":"TankSim","JobName":"cubevnc","JobId":"2811","Queue":"q_x86_expr","Cluster":"aip","CPU_Hours":0.0052777777777778,"User":"simforgetest3","Mem_GB_Hours":0.00063129425048828,"runTime":0.0052777777777778,"JobDescription":"tankrc","GPU_Cost":0,"CPU_Cost":0.0026388888888889,"Mem_Cost":6.3129425048828e-5,"App_Cost":0.0052777777777778},{"EndDate":"2020\/07\/01","GPU_Hours":0,"App":"TankSim","JobName":"cubevnc","JobId":"2814","Queue":"q_x86_expr","Cluster":"aip","CPU_Hours":0.005,"User":"simforgetest3","Mem_GB_Hours":0.00058797836303711,"runTime":0.005,"JobDescription":"tankrc","GPU_Cost":0,"CPU_Cost":0.0025,"Mem_Cost":5.8797836303711e-5,"App_Cost":0.005},{"EndDate":"2020\/07\/01","GPU_Hours":0,"App":"TankSim","JobName":"cubevnc","JobId":"2815","Queue":"q_x86_expr","Cluster":"aip","CPU_Hours":0.0052777777777778,"User":"simforgetest3","Mem_GB_Hours":0.00063165664672852,"runTime":0.0052777777777778,"JobDescription":"tankrc","GPU_Cost":0,"CPU_Cost":0.0026388888888889,"Mem_Cost":6.3165664672852e-5,"App_Cost":0.0052777777777778},{"EndDate":"2020\/07\/01","GPU_Hours":0,"App":"TankSim","JobName":"cubevnc","JobId":"2816","Queue":"q_x86_expr","Cluster":"aip","CPU_Hours":0.0052777777777778,"User":"simforgetest3","Mem_GB_Hours":0.00063167677985297,"runTime":0.0052777777777778,"JobDescription":"qiuxiao","GPU_Cost":0,"CPU_Cost":0.0026388888888889,"Mem_Cost":6.3167677985297e-5,"App_Cost":0.0052777777777778},{"EndDate":"2020\/07\/01","GPU_Hours":0,"App":"TankSim","JobName":"cubevnc","JobId":"2817","Queue":"q_x86_expr","Cluster":"aip","CPU_Hours":0.0052777777777778,"User":"simforgetest3","Mem_GB_Hours":0.00062318060133192,"runTime":0.0052777777777778,"JobDescription":"tanksim01","GPU_Cost":0,"CPU_Cost":0.0026388888888889,"Mem_Cost":6.2318060133192e-5,"App_Cost":0.0052777777777778},{"EndDate":"2020\/07\/01","GPU_Hours":0,"App":"TankSim","JobName":"cubevnc","JobId":"2818","Queue":"q_x86_expr","Cluster":"aip","CPU_Hours":0.0052777777777778,"User":"simforgetest3","Mem_GB_Hours":0.00068184852600098,"runTime":0.0052777777777778,"JobDescription":"tanksim02","GPU_Cost":0,"CPU_Cost":0.0026388888888889,"Mem_Cost":6.8184852600098e-5,"App_Cost":0.0052777777777778},{"EndDate":"2020\/07\/01","GPU_Hours":0,"App":"TankSim","JobName":"cubevnc","JobId":"2819","Queue":"q_x86_expr","Cluster":"aip","CPU_Hours":0.0052777777777778,"User":"simforgetest3","Mem_GB_Hours":0.00060975180731879,"runTime":0.0052777777777778,"JobDescription":"tankrc","GPU_Cost":0,"CPU_Cost":0.0026388888888889,"Mem_Cost":6.0975180731879e-5,"App_Cost":0.0052777777777778},{"EndDate":"2020\/07\/01","GPU_Hours":0,"App":"TankSim","JobName":"cubevnc","JobId":"2829","Queue":"q_x86_expr","Cluster":"aip","CPU_Hours":0.0052777777777778,"User":"simforgetest3","Mem_GB_Hours":0.00064351505703396,"runTime":0.0052777777777778,"JobDescription":"qiuxiao","GPU_Cost":0,"CPU_Cost":0.0026388888888889,"Mem_Cost":6.4351505703396e-5,"App_Cost":0.0052777777777778},{"EndDate":"2020\/07\/01","GPU_Hours":0,"App":"Abaqus","JobName":"cubevnc","JobId":"2688","Queue":"q_x86_expr","Cluster":"aip","CPU_Hours":19.529166666667,"User":"simforgetest3","Mem_GB_Hours":10.156367572149,"runTime":19.529166666667,"JobDescription":"abatest04","GPU_Cost":0,"CPU_Cost":9.7645833333333,"Mem_Cost":1.0156367572149,"App_Cost":97.645833333333},{"EndDate":"2020\/07\/01","GPU_Hours":0,"App":"PointWise","JobName":"cubevnc","JobId":"2873","Queue":"q_x86_expr","Cluster":"aip","CPU_Hours":0.0013888888888889,"User":"simforgetest3","Mem_GB_Hours":1.7558203803168e-5,"runTime":0.0013888888888889,"JobDescription":"PW_test","GPU_Cost":0,"CPU_Cost":0.00069444444444444,"Mem_Cost":1.7558203803168e-6,"App_Cost":0.0069444444444444},{"EndDate":"2020\/07\/01","GPU_Hours":0,"App":"PointWise","JobName":"cubevnc","JobId":"2874","Queue":"q_x86_expr","Cluster":"aip","CPU_Hours":0.027222222222222,"User":"simforgetest3","Mem_GB_Hours":0.0044155735439724,"runTime":0.027222222222222,"JobDescription":"PW_test","GPU_Cost":0,"CPU_Cost":0.013611111111111,"Mem_Cost":0.00044155735439724,"App_Cost":0.13611111111111},{"EndDate":"2020\/07\/01","GPU_Hours":0,"App":"TankSim","JobName":"cubevnc","JobId":"2875","Queue":"q_x86_expr","Cluster":"aip","CPU_Hours":0.0052777777777778,"User":"simforgetest3","Mem_GB_Hours":0.00063220024108887,"runTime":0.0052777777777778,"JobDescription":"tanksim02","GPU_Cost":0,"CPU_Cost":0.0026388888888889,"Mem_Cost":6.3220024108887e-5,"App_Cost":0.0052777777777778},{"EndDate":"2020\/07\/01","GPU_Hours":0,"App":"ParaView","JobName":"cubevnc","JobId":"2687","Queue":"q_x86_expr","Cluster":"aip","CPU_Hours":22.079722222222,"User":"simforgetest3","Mem_GB_Hours":7.6397671678331,"runTime":22.079722222222,"JobDescription":"pv02","GPU_Cost":0,"CPU_Cost":11.039861111111,"Mem_Cost":0.76397671678331,"App_Cost":11.039861111111},{"EndDate":"2020\/07\/01","GPU_Hours":0,"App":"ParaView","JobName":"cubevnc","JobId":"2876","Queue":"q_x86_expr","Cluster":"aip","CPU_Hours":0.035833333333333,"User":"simforgetest3","Mem_GB_Hours":0.032774136861165,"runTime":0.035833333333333,"JobDescription":"pv01","GPU_Cost":0,"CPU_Cost":0.017916666666667,"Mem_Cost":0.0032774136861165,"App_Cost":0.017916666666667},{"EndDate":"2020\/07\/01","GPU_Hours":0,"App":"PointWise","JobName":"cubevnc","JobId":"2880","Queue":"q_x86_expr","Cluster":"aip","CPU_Hours":0.095833333333333,"User":"simforgetest3","Mem_GB_Hours":0.031588252385457,"runTime":0.095833333333333,"JobDescription":"PW_test","GPU_Cost":0,"CPU_Cost":0.047916666666667,"Mem_Cost":0.0031588252385457,"App_Cost":0.47916666666667},{"EndDate":"2020\/07\/01","GPU_Hours":0,"App":"PointWise","JobName":"cubevnc","JobId":"2881","Queue":"q_x86_expr","Cluster":"aip","CPU_Hours":0.014166666666667,"User":"simforgetest3","Mem_GB_Hours":0.0043728256225586,"runTime":0.014166666666667,"JobDescription":"PW_test","GPU_Cost":0,"CPU_Cost":0.0070833333333333,"Mem_Cost":0.00043728256225586,"App_Cost":0.070833333333333},{"EndDate":"2020\/07\/02","GPU_Hours":0,"App":"ParaView","JobName":"cubevnc","JobId":"2877","Queue":"q_x86_expr","Cluster":"aip","CPU_Hours":19.072222222222,"User":"simforgetest3","Mem_GB_Hours":8.1264877531264,"runTime":19.072222222222,"JobDescription":"pv01","GPU_Cost":0,"CPU_Cost":9.5361111111111,"Mem_Cost":0.81264877531264,"App_Cost":9.5361111111111},{"EndDate":"2020\/07\/02","GPU_Hours":0,"App":"TankSim","JobName":"cubevnc","JobId":"2919","Queue":"q_x86_expr","Cluster":"aip","CPU_Hours":0.14305555555556,"User":"simforgetest3","Mem_GB_Hours":0.024754661983914,"runTime":0.14305555555556,"JobDescription":"tankrc02","GPU_Cost":0,"CPU_Cost":0.071527777777778,"Mem_Cost":0.0024754661983914,"App_Cost":0.14305555555556},{"EndDate":"2020\/07\/02","GPU_Hours":0,"App":"LSPrePost","JobName":"cubevnc","JobId":"2788","Queue":"q_x86_expr","Cluster":"aip","CPU_Hours":22.816111111111,"User":"simforgetest3","Mem_GB_Hours":6.1660178205702,"runTime":22.816111111111,"JobDescription":"zuoye01","GPU_Cost":0,"CPU_Cost":11.408055555556,"Mem_Cost":0.61660178205702,"App_Cost":0},{"EndDate":"2020\/07\/02","GPU_Hours":0,"App":"LSPrePost","JobName":"cubevnc","JobId":"2683","Queue":"q_x86_expr","Cluster":"aip","CPU_Hours":41.263888888889,"User":"simforgetest3","Mem_GB_Hours":53.723460197449,"runTime":41.263888888889,"JobDescription":"lsdyna01","GPU_Cost":0,"CPU_Cost":20.631944444444,"Mem_Cost":5.3723460197449,"App_Cost":0},{"EndDate":"2020\/07\/02","GPU_Hours":0,"App":"ICEM-CFD","JobName":"cubevnc","JobId":"2681","Queue":"q_x86_expr","Cluster":"aip","CPU_Hours":41.639166666667,"User":"simforgetest3","Mem_GB_Hours":9.3277680333455,"runTime":41.639166666667,"JobDescription":"icemcfd","GPU_Cost":0,"CPU_Cost":20.819583333333,"Mem_Cost":0.93277680333455,"App_Cost":208.19583333333},{"EndDate":"2020\/07\/02","GPU_Hours":0,"App":"Abaqus","JobName":"cubevnc","JobId":"2796","Queue":"q_x86_expr","Cluster":"aip","CPU_Hours":22.503888888889,"User":"simforgetest3","Mem_GB_Hours":11.976394816505,"runTime":22.503888888889,"JobDescription":"www","GPU_Cost":0,"CPU_Cost":11.251944444444,"Mem_Cost":1.1976394816505,"App_Cost":112.51944444444},{"EndDate":"2020\/07\/02","GPU_Hours":0,"App":"TankSim","JobName":"cubevnc","JobId":"2888","Queue":"q_x86_expr","Cluster":"aip","CPU_Hours":15.729444444444,"User":"simforgetest3","Mem_GB_Hours":1.8203730985853,"runTime":15.729444444444,"JobDescription":"qiuxiao","GPU_Cost":0,"CPU_Cost":7.8647222222222,"Mem_Cost":0.18203730985853,"App_Cost":15.729444444444},{"EndDate":"2020\/07\/02","GPU_Hours":0,"App":"TankSim","JobName":"cubevnc","JobId":"2924","Queue":"q_x86_expr","Cluster":"aip","CPU_Hours":0.0275,"User":"simforgetest3","Mem_GB_Hours":0.0043760776519775,"runTime":0.0275,"JobDescription":"tankwithoutg","GPU_Cost":0,"CPU_Cost":0.01375,"Mem_Cost":0.00043760776519775,"App_Cost":0.0275},{"EndDate":"2020\/07\/02","GPU_Hours":0,"App":"TankSim","JobName":"cubevnc","JobId":"2925","Queue":"q_x86_expr","Cluster":"aip","CPU_Hours":0.17638888888889,"User":"simforgetest3","Mem_GB_Hours":0.02802840868632,"runTime":0.17638888888889,"JobDescription":"tankwithoutg","GPU_Cost":0,"CPU_Cost":0.088194444444444,"Mem_Cost":0.002802840868632,"App_Cost":0.17638888888889},{"EndDate":"2020\/07\/02","GPU_Hours":0,"App":"TankSim","JobName":"cubevnc","JobId":"2928","Queue":"q_x86_expr","Cluster":"aip","CPU_Hours":0.025833333333333,"User":"simforgetest3","Mem_GB_Hours":0.0044003899892171,"runTime":0.025833333333333,"JobDescription":"tankwithoutg","GPU_Cost":0,"CPU_Cost":0.012916666666667,"Mem_Cost":0.00044003899892171,"App_Cost":0.025833333333333},{"EndDate":"2020\/07\/02","GPU_Hours":0,"App":"LSPrePost","JobName":"cubevnc","JobId":"2922","Queue":"q_x86_expr","Cluster":"aip","CPU_Hours":0.60722222222222,"User":"simforgetest3","Mem_GB_Hours":0.32951274871826,"runTime":0.60722222222222,"JobDescription":"lsdyna01","GPU_Cost":0,"CPU_Cost":0.30361111111111,"Mem_Cost":0.032951274871826,"App_Cost":0},{"EndDate":"2020\/07\/02","GPU_Hours":0,"App":"LS-DYNA-R10double","JobName":"\/home\/export\/online1\/simforgetest3\/dynabook\/LS-DYNA\/13.1\/main.k","JobId":"2931","Queue":"q_x86_expr","Cluster":"aip","CPU_Hours":0.031111111111111,"User":"simforgetest3","Mem_GB_Hours":0.00026418050130208,"runTime":0.015555555555556,"JobDescription":"main.k","GPU_Cost":0,"CPU_Cost":0.015555555555556,"Mem_Cost":2.6418050130208e-5,"App_Cost":0},{"EndDate":"2020\/07\/02","GPU_Hours":0,"App":"LS-DYNA-R10double","JobName":"\/home\/export\/online1\/simforgetest3\/dynabook\/LS-DYNA\/11.5\/main.k","JobId":"2933","Queue":"q_x86_expr","Cluster":"aip","CPU_Hours":0.66777777777778,"User":"simforgetest3","Mem_GB_Hours":0.0056691720750597,"runTime":0.33388888888889,"JobDescription":"main.k","GPU_Cost":0,"CPU_Cost":0.33388888888889,"Mem_Cost":0.00056691720750597,"App_Cost":0},{"EndDate":"2020\/07\/02","GPU_Hours":0,"App":"LSPrePost","JobName":"cubevnc","JobId":"2937","Queue":"q_x86_expr","Cluster":"aip","CPU_Hours":0.040277777777778,"User":"simforgetest3","Mem_GB_Hours":0.016848373413086,"runTime":0.040277777777778,"JobDescription":"book01","GPU_Cost":0,"CPU_Cost":0.020138888888889,"Mem_Cost":0.0016848373413086,"App_Cost":0},{"EndDate":"2020\/07\/02","GPU_Hours":0,"App":"LS-DYNA-R10double","JobName":"\/home\/export\/online1\/simforgetest3\/dynabook\/LS-DYNA\/12.6\/main.k","JobId":"2938","Queue":"q_x86_expr","Cluster":"aip","CPU_Hours":3.9488888888889,"User":"simforgetest3","Mem_GB_Hours":0.016758494906955,"runTime":0.98722222222222,"JobDescription":"main.k","GPU_Cost":0,"CPU_Cost":1.9744444444444,"Mem_Cost":0.0016758494906955,"App_Cost":0},{"EndDate":"2020\/07\/02","GPU_Hours":0,"App":"LSPrePost","JobName":"cubevnc","JobId":"2941","Queue":"q_x86_expr","Cluster":"aip","CPU_Hours":4.1730555555556,"User":"simforgetest3","Mem_GB_Hours":1.4017903370327,"runTime":4.1730555555556,"JobDescription":"book01","GPU_Cost":0,"CPU_Cost":2.0865277777778,"Mem_Cost":0.14017903370327,"App_Cost":0},{"EndDate":"2020\/07\/02","GPU_Hours":0,"App":"LSPrePost","JobName":"cubevnc","JobId":"2934","Queue":"q_x86_expr","Cluster":"aip","CPU_Hours":4.5625,"User":"simforgetest3","Mem_GB_Hours":1.6285443305969,"runTime":4.5625,"JobDescription":"test08","GPU_Cost":0,"CPU_Cost":2.28125,"Mem_Cost":0.16285443305969,"App_Cost":0},{"EndDate":"2020\/07\/02","GPU_Hours":0,"App":"LSPrePost","JobName":"cubevnc","JobId":"2932","Queue":"q_x86_expr","Cluster":"aip","CPU_Hours":4.6208333333333,"User":"simforgetest3","Mem_GB_Hours":2.0543304443359,"runTime":4.6208333333333,"JobDescription":"zuoye01","GPU_Cost":0,"CPU_Cost":2.3104166666667,"Mem_Cost":0.20543304443359,"App_Cost":0},{"EndDate":"2020\/07\/03","GPU_Hours":0,"App":"Abaqus","JobName":"cubevnc","JobId":"2990","Queue":"q_x86_expr","Cluster":"aip","CPU_Hours":0.032222222222222,"User":"simforgetest3","Mem_GB_Hours":0.01560604095459,"runTime":0.032222222222222,"JobDescription":"testsim01","GPU_Cost":0,"CPU_Cost":0.016111111111111,"Mem_Cost":0.001560604095459,"App_Cost":0.16111111111111},{"EndDate":"2020\/07\/03","GPU_Hours":0,"App":"Abaqus","JobName":"cubevnc","JobId":"2991","Queue":"q_x86_expr","Cluster":"aip","CPU_Hours":4.7472222222222,"User":"simforgetest3","Mem_GB_Hours":2.3276499218411,"runTime":4.7472222222222,"JobDescription":"newmin01","GPU_Cost":0,"CPU_Cost":2.3736111111111,"Mem_Cost":0.23276499218411,"App_Cost":23.736111111111},{"EndDate":"2020\/07\/03","GPU_Hours":0,"App":"ParaView","JobName":"cubevnc","JobId":"2994","Queue":"q_x86_expr","Cluster":"aip","CPU_Hours":7.0052777777778,"User":"simforgetest3","Mem_GB_Hours":2.2099932564629,"runTime":7.0052777777778,"JobDescription":"pv02","GPU_Cost":0,"CPU_Cost":3.5026388888889,"Mem_Cost":0.22099932564629,"App_Cost":3.5026388888889},{"EndDate":"2020\/07\/10","GPU_Hours":0,"App":"Fluent","JobName":"cubevnc","JobId":"3470","Queue":"q_x86_share","Cluster":"aip","CPU_Hours":0.034444444444444,"User":"simforgetest3","Mem_GB_Hours":0.00098388671875,"runTime":0.034444444444444,"JobDescription":"flu1","GPU_Cost":0,"CPU_Cost":0.017222222222222,"Mem_Cost":9.8388671875e-5,"App_Cost":0.17222222222222},{"EndDate":"2020\/07\/10","GPU_Hours":0,"App":"Fluent","JobName":"cubevnc","JobId":"3473","Queue":"q_x86_share","Cluster":"aip","CPU_Hours":0.075555555555556,"User":"simforgetest3","Mem_GB_Hours":0.0010841454399957,"runTime":0.037777777777778,"JobDescription":"FLU1","GPU_Cost":0,"CPU_Cost":0.037777777777778,"Mem_Cost":0.00010841454399957,"App_Cost":0.37777777777778},{"EndDate":"2020\/07\/10","GPU_Hours":0,"App":"ICEM-CFD","JobName":"cubevnc","JobId":"3482","Queue":"q_x86_expr","Cluster":"aip","CPU_Hours":0.0091666666666667,"User":"simforgetest3","Mem_GB_Hours":0.0017700131734212,"runTime":0.0091666666666667,"JobDescription":"cfd1","GPU_Cost":0,"CPU_Cost":0.0045833333333333,"Mem_Cost":0.00017700131734212,"App_Cost":0.045833333333333},{"EndDate":"2020\/07\/10","GPU_Hours":0,"App":"TankSim","JobName":"cubevnc","JobId":"3491","Queue":"q_x86_expr","Cluster":"aip","CPU_Hours":0.30666666666667,"User":"simforgetest3","Mem_GB_Hours":0.059203287760417,"runTime":0.30666666666667,"JobDescription":"tank1","GPU_Cost":0,"CPU_Cost":0.15333333333333,"Mem_Cost":0.0059203287760417,"App_Cost":0.30666666666667},{"EndDate":"2020\/07\/10","GPU_Hours":0,"App":"TankSim","JobName":"cubevnc","JobId":"3495","Queue":"q_x86_expr","Cluster":"aip","CPU_Hours":0.15583333333333,"User":"simforgetest3","Mem_GB_Hours":0.026771965026855,"runTime":0.15583333333333,"JobDescription":"tank2","GPU_Cost":0,"CPU_Cost":0.077916666666667,"Mem_Cost":0.0026771965026855,"App_Cost":0.15583333333333},{"EndDate":"2020\/07\/10","GPU_Hours":0,"App":"Abaqus","JobName":"cubevnc","JobId":"3485","Queue":"q_x86_expr","Cluster":"aip","CPU_Hours":0.65611111111111,"User":"simforgetest3","Mem_GB_Hours":0.48437200546265,"runTime":0.65611111111111,"JobDescription":"aba1","GPU_Cost":0,"CPU_Cost":0.32805555555556,"Mem_Cost":0.048437200546265,"App_Cost":3.2805555555556},{"EndDate":"2020\/07\/10","GPU_Hours":0,"App":"Fluent","JobName":"cubevnc","JobId":"3476","Queue":"q_x86_expr","Cluster":"aip","CPU_Hours":1.9983333333333,"User":"simforgetest3","Mem_GB_Hours":0.090142409006755,"runTime":0.99916666666667,"JobDescription":"FLU4","GPU_Cost":0,"CPU_Cost":0.99916666666667,"Mem_Cost":0.0090142409006755,"App_Cost":9.9916666666667},{"EndDate":"2020\/07\/10","GPU_Hours":0,"App":"ParaView","JobName":"cubevnc","JobId":"3478","Queue":"q_x86_share","Cluster":"aip","CPU_Hours":0.94944444444444,"User":"simforgetest3","Mem_GB_Hours":0.33770789676242,"runTime":0.94944444444444,"JobDescription":"test2","GPU_Cost":0,"CPU_Cost":0.47472222222222,"Mem_Cost":0.033770789676242,"App_Cost":0.47472222222222},{"EndDate":"2020\/07\/10","GPU_Hours":0,"App":"Fluent","JobName":"cubevnc","JobId":"3523","Queue":"q_x86_share","Cluster":"aip","CPU_Hours":0.016666666666667,"User":"simforgetest3","Mem_GB_Hours":0.00047613779703776,"runTime":0.016666666666667,"JobDescription":"flu\u2014\u2014share","GPU_Cost":0,"CPU_Cost":0.0083333333333333,"Mem_Cost":4.7613779703776e-5,"App_Cost":0.083333333333333},{"EndDate":"2020\/07\/10","GPU_Hours":0,"App":"Fluent","JobName":"cubevnc","JobId":"3525","Queue":"q_x86_share","Cluster":"aip","CPU_Hours":0.038333333333333,"User":"simforgetest3","Mem_GB_Hours":0.0010946782430013,"runTime":0.038333333333333,"JobDescription":"flu_share1","GPU_Cost":0,"CPU_Cost":0.019166666666667,"Mem_Cost":0.00010946782430013,"App_Cost":0.19166666666667},{"EndDate":"2020\/07\/10","GPU_Hours":0,"App":"Fluent","JobName":"cubevnc","JobId":"3526","Queue":"q_x86_share","Cluster":"aip","CPU_Hours":0.04,"User":"simforgetest3","Mem_GB_Hours":0.001142578125,"runTime":0.04,"JobDescription":"fluentshare1","GPU_Cost":0,"CPU_Cost":0.02,"Mem_Cost":0.0001142578125,"App_Cost":0.2},{"EndDate":"2020\/07\/10","GPU_Hours":0,"App":"Fluent","JobName":"cubevnc","JobId":"3529","Queue":"q_sw_expr","Cluster":"aip","CPU_Hours":0.035277777777778,"User":"simforgetest3","Mem_GB_Hours":0.0029909080929226,"runTime":0.035277777777778,"JobDescription":"fluswerpr","GPU_Cost":0,"CPU_Cost":0.010583333333333,"Mem_Cost":0.00029909080929226,"App_Cost":0.17638888888889},{"EndDate":"2020\/07\/10","GPU_Hours":0,"App":"Tanksimulator-Calculix","JobName":"","JobId":"3537","Queue":"q_x86_expr","Cluster":"aip","CPU_Hours":0.0013888888888889,"User":"simforgetest3","Mem_GB_Hours":3.3627616034614e-5,"runTime":0.0013888888888889,"JobDescription":"testmonpoint","GPU_Cost":0,"CPU_Cost":0.00069444444444444,"Mem_Cost":3.3627616034614e-6,"App_Cost":0},{"EndDate":"2020\/07\/10","GPU_Hours":0,"App":"Tanksimulator-Openfoam","JobName":"","JobId":"3538","Queue":"q_x86_expr","Cluster":"aip","CPU_Hours":0.0027777777777778,"User":"simforgetest3","Mem_GB_Hours":3.3028920491536e-5,"runTime":0.0027777777777778,"JobDescription":"testmonpoint","GPU_Cost":0,"CPU_Cost":0.0013888888888889,"Mem_Cost":3.3028920491536e-6,"App_Cost":0},{"EndDate":"2020\/07\/10","GPU_Hours":0,"App":"Fluent","JobName":"cubevnc","JobId":"3514","Queue":"q_x86_expr","Cluster":"aip","CPU_Hours":1.0033333333333,"User":"simforgetest3","Mem_GB_Hours":0.089320335388184,"runTime":1.0033333333333,"JobDescription":"flu4","GPU_Cost":0,"CPU_Cost":0.50166666666667,"Mem_Cost":0.0089320335388184,"App_Cost":5.0166666666667},{"EndDate":"2020\/07\/10","GPU_Hours":0,"App":"Tanksimulator-Calculix","JobName":"","JobId":"3540","Queue":"q_x86_expr","Cluster":"aip","CPU_Hours":0.00083333333333333,"User":"simforgetest3","Mem_GB_Hours":6.8314870198568e-6,"runTime":0.00083333333333333,"JobDescription":"testmonpoint","GPU_Cost":0,"CPU_Cost":0.00041666666666667,"Mem_Cost":6.8314870198568e-7,"App_Cost":0},{"EndDate":"2020\/07\/10","GPU_Hours":0,"App":"Tanksimulator-Openfoam","JobName":"","JobId":"3539","Queue":"q_x86_expr","Cluster":"aip","CPU_Hours":0.0019444444444444,"User":"simforgetest3","Mem_GB_Hours":2.1213955349392e-5,"runTime":0.0019444444444444,"JobDescription":"testmonpoint","GPU_Cost":0,"CPU_Cost":0.00097222222222222,"Mem_Cost":2.1213955349392e-6,"App_Cost":0},{"EndDate":"2020\/07\/15","GPU_Hours":0,"App":"TankSim","JobName":"cubevnc","JobId":"3510","Queue":"q_x86_expr","Cluster":"aip","CPU_Hours":114.33,"User":"simforgetest3","Mem_GB_Hours":23.259480400085,"runTime":114.33,"JobDescription":"tank3","GPU_Cost":0,"CPU_Cost":57.165,"Mem_Cost":2.3259480400085,"App_Cost":114.33},{"EndDate":"2020\/07\/15","GPU_Hours":0,"App":"ParaView","JobName":"cubevnc","JobId":"3536","Queue":"q_x86_expr","Cluster":"aip","CPU_Hours":113.47833333333,"User":"simforgetest3","Mem_GB_Hours":42.573854846954,"runTime":113.47833333333,"JobDescription":"paraview1","GPU_Cost":0,"CPU_Cost":56.739166666667,"Mem_Cost":4.2573854846954,"App_Cost":56.739166666667},{"EndDate":"2020\/07\/15","GPU_Hours":0,"App":"ParaView","JobName":"cubevnc","JobId":"4235","Queue":"local","Cluster":"aip","CPU_Hours":0.034722222222222,"User":"simforgetest3","Mem_GB_Hours":0.013641119003296,"runTime":0.034722222222222,"JobDescription":"test01","GPU_Cost":0,"CPU_Cost":0.017361111111111,"Mem_Cost":0.0013641119003296,"App_Cost":0.017361111111111},{"EndDate":"2020\/07\/15","GPU_Hours":0,"App":"TankSim","JobName":"cubevnc","JobId":"4234","Queue":"local","Cluster":"aip","CPU_Hours":0.33833333333333,"User":"simforgetest3","Mem_GB_Hours":0.06114403406779,"runTime":0.33833333333333,"JobDescription":"pubtest","GPU_Cost":0,"CPU_Cost":0.16916666666667,"Mem_Cost":0.006114403406779,"App_Cost":0.33833333333333},{"EndDate":"2020\/07\/15","GPU_Hours":0,"App":"ParaView","JobName":"cubevnc","JobId":"4236","Queue":"local","Cluster":"aip","CPU_Hours":0.31583333333333,"User":"simforgetest3","Mem_GB_Hours":0.13593493461609,"runTime":0.31583333333333,"JobDescription":"test01","GPU_Cost":0,"CPU_Cost":0.15791666666667,"Mem_Cost":0.013593493461609,"App_Cost":0.15791666666667},{"EndDate":"2020\/07\/15","GPU_Hours":0,"App":"Abaqus","JobName":"cubevnc","JobId":"4239","Queue":"local","Cluster":"aip","CPU_Hours":2.6519444444444,"User":"simforgetest3","Mem_GB_Hours":1.5614710881975,"runTime":2.6519444444444,"JobDescription":"abapubtest","GPU_Cost":0,"CPU_Cost":1.3259722222222,"Mem_Cost":0.15614710881975,"App_Cost":13.259722222222},{"EndDate":"2020\/07\/15","GPU_Hours":0,"App":"TankSim","JobName":"cubevnc","JobId":"4237","Queue":"local","Cluster":"aip","CPU_Hours":2.7627777777778,"User":"simforgetest3","Mem_GB_Hours":0.52809627109104,"runTime":2.7627777777778,"JobDescription":"pubtest","GPU_Cost":0,"CPU_Cost":1.3813888888889,"Mem_Cost":0.052809627109104,"App_Cost":2.7627777777778},{"EndDate":"2020\/07\/15","GPU_Hours":0,"App":"TankSim","JobName":"cubevnc","JobId":"3518","Queue":"q_x86_share","Cluster":"aip","CPU_Hours":117.1975,"User":"simforgetest3","Mem_GB_Hours":23.870120697021,"runTime":117.1975,"JobDescription":"flu5","GPU_Cost":0,"CPU_Cost":58.59875,"Mem_Cost":2.3870120697021,"App_Cost":117.1975},{"EndDate":"2020\/07\/15","GPU_Hours":0,"App":"LSPrePost","JobName":"cubevnc","JobId":"3475","Queue":"q_x86_expr","Cluster":"aip","CPU_Hours":121.17861111111,"User":"simforgetest3","Mem_GB_Hours":38.401763685015,"runTime":121.17861111111,"JobDescription":"lsdyna01","GPU_Cost":0,"CPU_Cost":60.589305555556,"Mem_Cost":3.8401763685015,"App_Cost":0},{"EndDate":"2020\/07\/15","GPU_Hours":0,"App":"TankSim","JobName":"cubevnc","JobId":"4274","Queue":"local","Cluster":"aip","CPU_Hours":1.5486111111111,"User":"simforgetest3","Mem_GB_Hours":0.27030277252197,"runTime":1.5486111111111,"JobDescription":"Tanksim01","GPU_Cost":0,"CPU_Cost":0.77430555555556,"Mem_Cost":0.027030277252197,"App_Cost":1.5486111111111},{"EndDate":"2020\/07\/15","GPU_Hours":0,"App":"TankSim","JobName":"cubevnc","JobId":"4292","Queue":"local","Cluster":"aip","CPU_Hours":0.18333333333333,"User":"simforgetest3","Mem_GB_Hours":0.033372815450033,"runTime":0.18333333333333,"JobDescription":"Tanksim01","GPU_Cost":0,"CPU_Cost":0.091666666666667,"Mem_Cost":0.0033372815450033,"App_Cost":0.18333333333333},{"EndDate":"2020\/07\/15","GPU_Hours":0,"App":"TankSim","JobName":"cubevnc","JobId":"4294","Queue":"local","Cluster":"aip","CPU_Hours":0.15805555555556,"User":"simforgetest3","Mem_GB_Hours":0.030322158601549,"runTime":0.15805555555556,"JobDescription":"Tanksim01","GPU_Cost":0,"CPU_Cost":0.079027777777778,"Mem_Cost":0.0030322158601549,"App_Cost":0.15805555555556},{"EndDate":"2020\/07\/15","GPU_Hours":0,"App":"ParaView","JobName":"cubevnc","JobId":"4301","Queue":"local","Cluster":"aip","CPU_Hours":0.053888888888889,"User":"simforgetest3","Mem_GB_Hours":0.019366113874647,"runTime":0.053888888888889,"JobDescription":"test01","GPU_Cost":0,"CPU_Cost":0.026944444444444,"Mem_Cost":0.0019366113874647,"App_Cost":0.026944444444444},{"EndDate":"2020\/07\/15","GPU_Hours":0,"App":"TankSim","JobName":"cubevnc","JobId":"4295","Queue":"local","Cluster":"aip","CPU_Hours":1.2838888888889,"User":"simforgetest3","Mem_GB_Hours":0.23885336769952,"runTime":1.2838888888889,"JobDescription":"Tanksim01","GPU_Cost":0,"CPU_Cost":0.64194444444444,"Mem_Cost":0.023885336769952,"App_Cost":1.2838888888889},{"EndDate":"2020\/07\/15","GPU_Hours":0,"App":"TankSim","JobName":"cubevnc","JobId":"4304","Queue":"local","Cluster":"aip","CPU_Hours":0.12638888888889,"User":"simforgetest3","Mem_GB_Hours":0.01585791375902,"runTime":0.12638888888889,"JobDescription":"Tanksim01","GPU_Cost":0,"CPU_Cost":0.063194444444444,"Mem_Cost":0.001585791375902,"App_Cost":0.12638888888889},{"EndDate":"2020\/07\/15","GPU_Hours":0,"App":"TankSim","JobName":"cubevnc","JobId":"4311","Queue":"local","Cluster":"aip","CPU_Hours":0.16972222222222,"User":"simforgetest3","Mem_GB_Hours":0.029523861143324,"runTime":0.16972222222222,"JobDescription":"tank1","GPU_Cost":0,"CPU_Cost":0.084861111111111,"Mem_Cost":0.0029523861143324,"App_Cost":0.16972222222222},{"EndDate":"2020\/07\/15","GPU_Hours":0,"App":"TankSim","JobName":"cubevnc","JobId":"4313","Queue":"local","Cluster":"aip","CPU_Hours":0.019444444444444,"User":"simforgetest3","Mem_GB_Hours":0.001823361714681,"runTime":0.019444444444444,"JobDescription":"tank2","GPU_Cost":0,"CPU_Cost":0.0097222222222222,"Mem_Cost":0.0001823361714681,"App_Cost":0.019444444444444},{"EndDate":"2020\/07\/15","GPU_Hours":0,"App":"ParaView","JobName":"cubevnc","JobId":"4302","Queue":"local","Cluster":"aip","CPU_Hours":1.075,"User":"simforgetest3","Mem_GB_Hours":0.60506477355957,"runTime":1.075,"JobDescription":"test01","GPU_Cost":0,"CPU_Cost":0.5375,"Mem_Cost":0.060506477355957,"App_Cost":0.5375},{"EndDate":"2020\/07\/15","GPU_Hours":0,"App":"Tanksimulator-Calculix","JobName":"","JobId":"4318","Queue":"local","Cluster":"aip","CPU_Hours":1.0016666666667,"User":"simforgetest3","Mem_GB_Hours":0.0086585108439128,"runTime":1.0016666666667,"JobDescription":"testmonpoint","GPU_Cost":0,"CPU_Cost":0.50083333333333,"Mem_Cost":0.00086585108439128,"App_Cost":0},{"EndDate":"2020\/07\/15","GPU_Hours":0,"App":"Tanksimulator-Openfoam","JobName":"","JobId":"4317","Queue":"local","Cluster":"aip","CPU_Hours":1.0027777777778,"User":"simforgetest3","Mem_GB_Hours":0.010335943433974,"runTime":1.0027777777778,"JobDescription":"testmonpoint","GPU_Cost":0,"CPU_Cost":0.50138888888889,"Mem_Cost":0.0010335943433974,"App_Cost":0},{"EndDate":"2020\/07\/16","GPU_Hours":0,"App":"ParaView","JobName":"cubevnc","JobId":"4315","Queue":"local","Cluster":"aip","CPU_Hours":19.626388888889,"User":"simforgetest3","Mem_GB_Hours":7.4530325359768,"runTime":19.626388888889,"JobDescription":"test01","GPU_Cost":0,"CPU_Cost":9.8131944444444,"Mem_Cost":0.74530325359768,"App_Cost":9.8131944444444},{"EndDate":"2020\/07\/16","GPU_Hours":0,"App":"LSPrePost","JobName":"cubevnc","JobId":"4309","Queue":"local","Cluster":"aip","CPU_Hours":21.209166666667,"User":"simforgetest3","Mem_GB_Hours":5.1166920407613,"runTime":21.209166666667,"JobDescription":"car2car","GPU_Cost":0,"CPU_Cost":10.604583333333,"Mem_Cost":0.51166920407613,"App_Cost":0},{"EndDate":"2020\/07\/16","GPU_Hours":0,"App":"Abaqus","JobName":"cubevnc","JobId":"4310","Queue":"local","Cluster":"aip","CPU_Hours":21.199166666667,"User":"simforgetest3","Mem_GB_Hours":8.1931822617849,"runTime":21.199166666667,"JobDescription":"abatest01","GPU_Cost":0,"CPU_Cost":10.599583333333,"Mem_Cost":0.81931822617849,"App_Cost":105.99583333333},{"EndDate":"2020\/07\/16","GPU_Hours":0,"App":"TankSim","JobName":"cubevnc","JobId":"4314","Queue":"local","Cluster":"aip","CPU_Hours":22.073611111111,"User":"simforgetest3","Mem_GB_Hours":4.7944155481127,"runTime":22.073611111111,"JobDescription":"tank3","GPU_Cost":0,"CPU_Cost":11.036805555556,"Mem_Cost":0.47944155481127,"App_Cost":22.073611111111},{"EndDate":"2020\/07\/16","GPU_Hours":0,"App":"TankSim","JobName":"cubevnc","JobId":"4307","Queue":"local","Cluster":"aip","CPU_Hours":22.634444444444,"User":"simforgetest3","Mem_GB_Hours":4.2243583467272,"runTime":22.634444444444,"JobDescription":"Tanksim01","GPU_Cost":0,"CPU_Cost":11.317222222222,"Mem_Cost":0.42243583467272,"App_Cost":22.634444444444},{"EndDate":"2020\/07\/16","GPU_Hours":0,"App":"Fluent","JobName":"cubevnc","JobId":"4636","Queue":"q_x86_expr","Cluster":"aip","CPU_Hours":0.39583333333333,"User":"simforgetest3","Mem_GB_Hours":0.0023887952168783,"runTime":0.39583333333333,"JobDescription":"fluent_test","GPU_Cost":0,"CPU_Cost":0.19791666666667,"Mem_Cost":0.00023887952168783,"App_Cost":1.9791666666667},{"EndDate":"2020\/07\/16","GPU_Hours":0,"App":"Fluent","JobName":"cubevnc","JobId":"4641","Queue":"q_x86_expr","Cluster":"aip","CPU_Hours":0.17666666666667,"User":"simforgetest3","Mem_GB_Hours":0.0010465007358127,"runTime":0.014722222222222,"JobDescription":"fluent_test2","GPU_Cost":0,"CPU_Cost":0.088333333333333,"Mem_Cost":0.00010465007358127,"App_Cost":0.88333333333333},{"EndDate":"2020\/07\/16","GPU_Hours":0,"App":"PointWise","JobName":"cubevnc","JobId":"4642","Queue":"local","Cluster":"aip","CPU_Hours":0.028611111111111,"User":"simforgetest3","Mem_GB_Hours":0.0077518622080485,"runTime":0.028611111111111,"JobDescription":"PW_test1","GPU_Cost":0,"CPU_Cost":0.014305555555556,"Mem_Cost":0.00077518622080485,"App_Cost":0.14305555555556},{"EndDate":"2020\/07\/16","GPU_Hours":0,"App":"Fluent","JobName":"cubevnc","JobId":"4640","Queue":"q_x86_expr","Cluster":"aip","CPU_Hours":0.99305555555556,"User":"simforgetest3","Mem_GB_Hours":0.082200288772583,"runTime":0.99305555555556,"JobDescription":"fluent_test","GPU_Cost":0,"CPU_Cost":0.49652777777778,"Mem_Cost":0.0082200288772583,"App_Cost":4.9652777777778},{"EndDate":"2020\/07\/16","GPU_Hours":0,"App":"Fluent","JobName":"cubevnc","JobId":"4643","Queue":"q_x86_expr","Cluster":"aip","CPU_Hours":12.036666666667,"User":"simforgetest3","Mem_GB_Hours":0.084022891786363,"runTime":1.0030555555556,"JobDescription":"fluent_test2","GPU_Cost":0,"CPU_Cost":6.0183333333333,"Mem_Cost":0.0084022891786363,"App_Cost":60.183333333333},{"EndDate":"2020\/07\/16","GPU_Hours":0,"App":"StarCCM","JobName":"cubevnc","JobId":"4638","Queue":"local","Cluster":"aip","CPU_Hours":3.0097222222222,"User":"simforgetest3","Mem_GB_Hours":2.9528100172679,"runTime":3.0097222222222,"JobDescription":"starccm_test2","GPU_Cost":0,"CPU_Cost":1.5048611111111,"Mem_Cost":0.29528100172679,"App_Cost":15.048611111111},{"EndDate":"2020\/07\/17","GPU_Hours":0,"App":"PointWise","JobName":"cubevnc","JobId":"4644","Queue":"local","Cluster":"aip","CPU_Hours":13.316666666667,"User":"simforgetest3","Mem_GB_Hours":13.695068804423,"runTime":13.316666666667,"JobDescription":"PW_test2","GPU_Cost":0,"CPU_Cost":6.6583333333333,"Mem_Cost":1.3695068804423,"App_Cost":66.583333333333},{"EndDate":"2020\/07\/17","GPU_Hours":0,"App":"StarCCM","JobName":"cubevnc","JobId":"4637","Queue":"local","Cluster":"aip","CPU_Hours":43.137777777778,"User":"simforgetest3","Mem_GB_Hours":7.9428233083089,"runTime":10.784444444444,"JobDescription":"starccm_test1","GPU_Cost":0,"CPU_Cost":21.568888888889,"Mem_Cost":0.79428233083089,"App_Cost":215.68888888889},{"EndDate":"2020\/07\/17","GPU_Hours":0,"App":"StarCCM","JobName":"cubevnc","JobId":"4784","Queue":"local","Cluster":"aip","CPU_Hours":0.08,"User":"simforgetest3","Mem_GB_Hours":0.061019287109375,"runTime":0.08,"JobDescription":"starccm_test_9","GPU_Cost":0,"CPU_Cost":0.04,"Mem_Cost":0.0061019287109375,"App_Cost":0.4},{"EndDate":"2020\/07\/17","GPU_Hours":0,"App":"StarCCM","JobName":"cubevnc","JobId":"4785","Queue":"local","Cluster":"aip","CPU_Hours":0.023333333333333,"User":"simforgetest3","Mem_GB_Hours":0.016207491556803,"runTime":0.023333333333333,"JobDescription":"starccm_test_9","GPU_Cost":0,"CPU_Cost":0.011666666666667,"Mem_Cost":0.0016207491556803,"App_Cost":0.11666666666667},{"EndDate":"2020\/07\/17","GPU_Hours":0,"App":"StarCCM","JobName":"cubevnc","JobId":"4792","Queue":"local","Cluster":"aip","CPU_Hours":0.21833333333333,"User":"simforgetest3","Mem_GB_Hours":1.2180555343628,"runTime":0.21833333333333,"JobDescription":"starccm_test_10","GPU_Cost":0,"CPU_Cost":0.10916666666667,"Mem_Cost":0.12180555343628,"App_Cost":1.0916666666667},{"EndDate":"2020\/07\/17","GPU_Hours":0,"App":"ParaView","JobName":"cubevnc","JobId":"4801","Queue":"local","Cluster":"aip","CPU_Hours":0.025555555555556,"User":"simforgetest3","Mem_GB_Hours":0.023004230923123,"runTime":0.025555555555556,"JobDescription":"test01","GPU_Cost":0,"CPU_Cost":0.012777777777778,"Mem_Cost":0.0023004230923123,"App_Cost":0.012777777777778},{"EndDate":"2020\/07\/17","GPU_Hours":0,"App":"ParaView","JobName":"cubevnc","JobId":"4804","Queue":"local","Cluster":"aip","CPU_Hours":0.0011111111111111,"User":"simforgetest3","Mem_GB_Hours":1.3033548990885e-5,"runTime":0.0011111111111111,"JobDescription":"test01","GPU_Cost":0,"CPU_Cost":0.00055555555555556,"Mem_Cost":1.3033548990885e-6,"App_Cost":0.00055555555555556},{"EndDate":"2020\/07\/17","GPU_Hours":0,"App":"TankSim","JobName":"cubevnc","JobId":"4802","Queue":"local","Cluster":"aip","CPU_Hours":0.078888888888889,"User":"simforgetest3","Mem_GB_Hours":0.013163897196452,"runTime":0.078888888888889,"JobDescription":"tank2","GPU_Cost":0,"CPU_Cost":0.039444444444444,"Mem_Cost":0.0013163897196452,"App_Cost":0.078888888888889},{"EndDate":"2020\/07\/17","GPU_Hours":0,"App":"LSPrePost","JobName":"cubevnc","JobId":"4803","Queue":"local","Cluster":"aip","CPU_Hours":0.4,"User":"simforgetest3","Mem_GB_Hours":0.11446380615234,"runTime":0.4,"JobDescription":"car2car","GPU_Cost":0,"CPU_Cost":0.2,"Mem_Cost":0.011446380615234,"App_Cost":0},{"EndDate":"2020\/07\/17","GPU_Hours":0,"App":"ParaView","JobName":"cubevnc","JobId":"4805","Queue":"local","Cluster":"aip","CPU_Hours":0.39722222222222,"User":"simforgetest3","Mem_GB_Hours":0.14194863637288,"runTime":0.39722222222222,"JobDescription":"newpv02","GPU_Cost":0,"CPU_Cost":0.19861111111111,"Mem_Cost":0.014194863637288,"App_Cost":0.19861111111111},{"EndDate":"2020\/07\/17","GPU_Hours":0,"App":"Abaqus","JobName":"cubevnc","JobId":"4806","Queue":"local","Cluster":"aip","CPU_Hours":0.38138888888889,"User":"simforgetest3","Mem_GB_Hours":0.18188076231215,"runTime":0.38138888888889,"JobDescription":"abatest01","GPU_Cost":0,"CPU_Cost":0.19069444444444,"Mem_Cost":0.018188076231215,"App_Cost":1.9069444444444},{"EndDate":"2020\/07\/17","GPU_Hours":0,"App":"TankSim","JobName":"cubevnc","JobId":"4811","Queue":"local","Cluster":"aip","CPU_Hours":0.029722222222222,"User":"simforgetest3","Mem_GB_Hours":0.0048514715830485,"runTime":0.029722222222222,"JobDescription":"removegeom2","GPU_Cost":0,"CPU_Cost":0.014861111111111,"Mem_Cost":0.00048514715830485,"App_Cost":0.029722222222222},{"EndDate":"2020\/07\/17","GPU_Hours":0,"App":"TankSim","JobName":"cubevnc","JobId":"4812","Queue":"local","Cluster":"aip","CPU_Hours":2.2691666666667,"User":"simforgetest3","Mem_GB_Hours":0.37510707219442,"runTime":2.2691666666667,"JobDescription":"testnew04","GPU_Cost":0,"CPU_Cost":1.1345833333333,"Mem_Cost":0.037510707219442,"App_Cost":2.2691666666667},{"EndDate":"2020\/07\/17","GPU_Hours":0,"App":"TankSim","JobName":"cubevnc","JobId":"4832","Queue":"local","Cluster":"aip","CPU_Hours":0.41083333333333,"User":"simforgetest3","Mem_GB_Hours":0.062346541086833,"runTime":0.41083333333333,"JobDescription":"tank1","GPU_Cost":0,"CPU_Cost":0.20541666666667,"Mem_Cost":0.0062346541086833,"App_Cost":0.41083333333333},{"EndDate":"2020\/07\/17","GPU_Hours":0,"App":"TankSim","JobName":"cubevnc","JobId":"4833","Queue":"local","Cluster":"aip","CPU_Hours":0.42138888888889,"User":"simforgetest3","Mem_GB_Hours":0.065113829506768,"runTime":0.42138888888889,"JobDescription":"testnew04","GPU_Cost":0,"CPU_Cost":0.21069444444444,"Mem_Cost":0.0065113829506768,"App_Cost":0.42138888888889},{"EndDate":"2020\/07\/17","GPU_Hours":0,"App":"ICEM-CFD","JobName":"cubevnc","JobId":"4830","Queue":"local","Cluster":"aip","CPU_Hours":1.525,"User":"simforgetest3","Mem_GB_Hours":0.29757814407349,"runTime":1.525,"JobDescription":"icemcfd_of","GPU_Cost":0,"CPU_Cost":0.7625,"Mem_Cost":0.029757814407349,"App_Cost":7.625},{"EndDate":"2020\/07\/17","GPU_Hours":0,"App":"ICEM-CFD","JobName":"cubevnc","JobId":"4840","Queue":"local","Cluster":"aip","CPU_Hours":0.14361111111111,"User":"simforgetest3","Mem_GB_Hours":0.030395961337619,"runTime":0.14361111111111,"JobDescription":"icemcfd_of","GPU_Cost":0,"CPU_Cost":0.071805555555556,"Mem_Cost":0.0030395961337619,"App_Cost":0.71805555555556},{"EndDate":"2020\/07\/17","GPU_Hours":0,"App":"ICEM-CFD","JobName":"cubevnc","JobId":"4841","Queue":"local","Cluster":"aip","CPU_Hours":0.013333333333333,"User":"simforgetest3","Mem_GB_Hours":0.0027707926432292,"runTime":0.013333333333333,"JobDescription":"icemcfd_of_2","GPU_Cost":0,"CPU_Cost":0.0066666666666667,"Mem_Cost":0.00027707926432292,"App_Cost":0.066666666666667},{"EndDate":"2020\/07\/17","GPU_Hours":0,"App":"Fluent","JobName":"cubevnc","JobId":"4842","Queue":"q_x86_expr","Cluster":"aip","CPU_Hours":0.0083333333333333,"User":"simforgetest3","Mem_GB_Hours":0.00059232711791992,"runTime":0.0083333333333333,"JobDescription":"fluent_test","GPU_Cost":0,"CPU_Cost":0.0041666666666667,"Mem_Cost":5.9232711791992e-5,"App_Cost":0.041666666666667},{"EndDate":"2020\/07\/17","GPU_Hours":0,"App":"Fluent","JobName":"cubevnc","JobId":"4843","Queue":"q_x86_share","Cluster":"aip","CPU_Hours":0.024166666666667,"User":"simforgetest3","Mem_GB_Hours":0.0018131637573242,"runTime":0.024166666666667,"JobDescription":"fluent_test_10","GPU_Cost":0,"CPU_Cost":0.012083333333333,"Mem_Cost":0.00018131637573242,"App_Cost":0.12083333333333},{"EndDate":"2020\/07\/17","GPU_Hours":0,"App":"PointWise","JobName":"cubevnc","JobId":"4844","Queue":"local","Cluster":"aip","CPU_Hours":0.022777777777778,"User":"simforgetest3","Mem_GB_Hours":0.0062243016560872,"runTime":0.022777777777778,"JobDescription":"PW_test","GPU_Cost":0,"CPU_Cost":0.011388888888889,"Mem_Cost":0.00062243016560872,"App_Cost":0.11388888888889},{"EndDate":"2020\/07\/17","GPU_Hours":0,"App":"TankSim","JobName":"cubevnc","JobId":"4807","Queue":"local","Cluster":"aip","CPU_Hours":4.4352777777778,"User":"simforgetest3","Mem_GB_Hours":0.78691394593981,"runTime":4.4352777777778,"JobDescription":"Tanksim01","GPU_Cost":0,"CPU_Cost":2.2176388888889,"Mem_Cost":0.078691394593981,"App_Cost":4.4352777777778},{"EndDate":"2020\/07\/19","GPU_Hours":0,"App":"PointWise","JobName":"cubevnc","JobId":"5138","Queue":"local","Cluster":"aip","CPU_Hours":0.016388888888889,"User":"simforgetest3","Mem_GB_Hours":0.0044498899247911,"runTime":0.016388888888889,"JobDescription":"PW_test1","GPU_Cost":0,"CPU_Cost":0.0081944444444444,"Mem_Cost":0.00044498899247911,"App_Cost":0.081944444444444},{"EndDate":"2020\/07\/19","GPU_Hours":0,"App":"StarCCM","JobName":"cubevnc","JobId":"5137","Queue":"q_x86_share_plus","Cluster":"aip","CPU_Hours":8.6838888888889,"User":"simforgetest3","Mem_GB_Hours":0.16027164247301,"runTime":0.17722222222222,"JobDescription":"starccm_test_8","GPU_Cost":0,"CPU_Cost":4.3419444444444,"Mem_Cost":0.016027164247301,"App_Cost":43.419444444444},{"EndDate":"2020\/07\/20","GPU_Hours":0,"App":"TankSim","JobName":"cubevnc","JobId":"4810","Queue":"local","Cluster":"aip","CPU_Hours":67.6775,"User":"simforgetest3","Mem_GB_Hours":10.398021659851,"runTime":67.6775,"JobDescription":"removegeom","GPU_Cost":0,"CPU_Cost":33.83875,"Mem_Cost":1.0398021659851,"App_Cost":67.6775},{"EndDate":"2020\/07\/20","GPU_Hours":0,"App":"TankSim","JobName":"cubevnc","JobId":"5216","Queue":"local","Cluster":"aip","CPU_Hours":1.0661111111111,"User":"simforgetest3","Mem_GB_Hours":0.18558851030138,"runTime":1.0661111111111,"JobDescription":"Tanksim01","GPU_Cost":0,"CPU_Cost":0.53305555555556,"Mem_Cost":0.018558851030138,"App_Cost":1.0661111111111},{"EndDate":"2020\/07\/20","GPU_Hours":0,"App":"TankSim","JobName":"cubevnc","JobId":"5219","Queue":"local","Cluster":"aip","CPU_Hours":0.025833333333333,"User":"simforgetest3","Mem_GB_Hours":0.0034428151448568,"runTime":0.025833333333333,"JobDescription":"Tanksim03","GPU_Cost":0,"CPU_Cost":0.012916666666667,"Mem_Cost":0.00034428151448568,"App_Cost":0.025833333333333},{"EndDate":"2020\/07\/21","GPU_Hours":0,"App":"TankSim","JobName":"cubevnc","JobId":"5221","Queue":"local","Cluster":"aip","CPU_Hours":23.019722222222,"User":"simforgetest3","Mem_GB_Hours":4.0281703864204,"runTime":23.019722222222,"JobDescription":"Tanksim03","GPU_Cost":0,"CPU_Cost":11.509861111111,"Mem_Cost":0.40281703864204,"App_Cost":23.019722222222},{"EndDate":"2020\/07\/21","GPU_Hours":0,"App":"TankSim","JobName":"cubevnc","JobId":"5220","Queue":"local","Cluster":"aip","CPU_Hours":23.065,"User":"simforgetest3","Mem_GB_Hours":4.4715361213684,"runTime":23.065,"JobDescription":"removegeom2","GPU_Cost":0,"CPU_Cost":11.5325,"Mem_Cost":0.44715361213684,"App_Cost":23.065},{"EndDate":"2020\/07\/22","GPU_Hours":2.7111111111111,"App":"ICEM-CFD","JobName":"cubevnc","JobId":"5550","Queue":"local","Cluster":"aip","CPU_Hours":2.7111111111111,"User":"simforgetest3","Mem_GB_Hours":0.57907307942708,"runTime":2.7111111111111,"JobDescription":"test1","GPU_Cost":1.3555555555556,"CPU_Cost":1.3555555555556,"Mem_Cost":0.057907307942708,"App_Cost":13.555555555556},{"EndDate":"2020\/07\/23","GPU_Hours":0,"App":"Abaqus","JobName":"cubevnc","JobId":"5615","Queue":"local","Cluster":"aip","CPU_Hours":0.039444444444444,"User":"simforgetest3","Mem_GB_Hours":0.011764689551459,"runTime":0.039444444444444,"JobDescription":"abatest01","GPU_Cost":0,"CPU_Cost":0.019722222222222,"Mem_Cost":0.0011764689551459,"App_Cost":0.19722222222222},{"EndDate":"2020\/07\/23","GPU_Hours":0,"App":"TankSim","JobName":"cubevnc","JobId":"5616","Queue":"local","Cluster":"aip","CPU_Hours":0.11527777777778,"User":"simforgetest3","Mem_GB_Hours":0.015893877877129,"runTime":0.11527777777778,"JobDescription":"removegeom","GPU_Cost":0,"CPU_Cost":0.057638888888889,"Mem_Cost":0.0015893877877129,"App_Cost":0.11527777777778},{"EndDate":"2020\/07\/23","GPU_Hours":4.5277777777778,"App":"ParaView","JobName":"cubevnc","JobId":"5621","Queue":"local","Cluster":"aip","CPU_Hours":4.5277777777778,"User":"simforgetest3","Mem_GB_Hours":1.7989757325914,"runTime":4.5277777777778,"JobDescription":"pvtest01","GPU_Cost":2.2638888888889,"CPU_Cost":2.2638888888889,"Mem_Cost":0.17989757325914,"App_Cost":2.2638888888889},{"EndDate":"2020\/07\/23","GPU_Hours":0,"App":"LSPrePost","JobName":"cubevnc","JobId":"5617","Queue":"local","Cluster":"aip","CPU_Hours":4.6247222222222,"User":"simforgetest3","Mem_GB_Hours":1.0101407814026,"runTime":4.6247222222222,"JobDescription":"car2car","GPU_Cost":0,"CPU_Cost":2.3123611111111,"Mem_Cost":0.10101407814026,"App_Cost":0},{"EndDate":"2020\/07\/23","GPU_Hours":0.12722222222222,"App":"ICEM-CFD","JobName":"cubevnc","JobId":"5663","Queue":"local","Cluster":"aip","CPU_Hours":0.12722222222222,"User":"simforgetest3","Mem_GB_Hours":0.041969006856283,"runTime":0.12722222222222,"JobDescription":"ICEMCFD_test","GPU_Cost":0.063611111111111,"CPU_Cost":0.063611111111111,"Mem_Cost":0.0041969006856283,"App_Cost":0.63611111111111},{"EndDate":"2020\/07\/23","GPU_Hours":0.21555555555556,"App":"PointWise","JobName":"cubevnc","JobId":"5662","Queue":"local","Cluster":"aip","CPU_Hours":0.21555555555556,"User":"simforgetest3","Mem_GB_Hours":0.29701217651367,"runTime":0.21555555555556,"JobDescription":"PW_test","GPU_Cost":0.10777777777778,"CPU_Cost":0.10777777777778,"Mem_Cost":0.029701217651367,"App_Cost":1.0777777777778},{"EndDate":"2020\/07\/23","GPU_Hours":0.20944444444444,"App":"PointWise","JobName":"cubevnc","JobId":"5664","Queue":"local","Cluster":"aip","CPU_Hours":0.20944444444444,"User":"simforgetest3","Mem_GB_Hours":0.084530724419488,"runTime":0.20944444444444,"JobDescription":"PW_test2","GPU_Cost":0.10472222222222,"CPU_Cost":0.10472222222222,"Mem_Cost":0.0084530724419488,"App_Cost":1.0472222222222},{"EndDate":"2020\/07\/23","GPU_Hours":0,"App":"","JobName":"swof_\/home\/export\/base\/nsccwuxi_amd\/simforgetest3\/WORK\/ZHL\/OF-GUI\/OF-GUI_Mesh5629","JobId":"5667","Queue":"q_x86_expr","Cluster":"aip","CPU_Hours":0.016944444444444,"User":"simforgetest3","Mem_GB_Hours":0.00019281493292914,"runTime":0.016944444444444,"JobDescription":"","GPU_Cost":0,"CPU_Cost":0.0084722222222222,"Mem_Cost":1.9281493292914e-5,"App_Cost":0},{"EndDate":"2020\/07\/23","GPU_Hours":0,"App":"","JobName":"swof_\/home\/export\/base\/nsccwuxi_amd\/simforgetest3\/WORK\/ZHL\/OF-GUI\/OF-GUI_Mesh_starcd_post5629","JobId":"5672","Queue":"q_x86_expr","Cluster":"aip","CPU_Hours":0.0055555555555556,"User":"simforgetest3","Mem_GB_Hours":6.4320034450955e-5,"runTime":0.0055555555555556,"JobDescription":"","GPU_Cost":0,"CPU_Cost":0.0027777777777778,"Mem_Cost":6.4320034450955e-6,"App_Cost":0},{"EndDate":"2020\/07\/23","GPU_Hours":0,"App":"","JobName":"swof_\/home\/export\/base\/nsccwuxi_amd\/simforgetest3\/WORK\/ZHL\/OF-GUI_Setfields20517","JobId":"5676","Queue":"q_x86_expr","Cluster":"aip","CPU_Hours":0.013888888888889,"User":"simforgetest3","Mem_GB_Hours":0.00016080008612739,"runTime":0.013888888888889,"JobDescription":"","GPU_Cost":0,"CPU_Cost":0.0069444444444444,"Mem_Cost":1.6080008612739e-5,"App_Cost":0},{"EndDate":"2020\/07\/23","GPU_Hours":0,"App":"StarCCM","JobName":"cubevnc","JobId":"5666","Queue":"q_x86_expr_plus","Cluster":"aip","CPU_Hours":12.227222222222,"User":"simforgetest3","Mem_GB_Hours":0.81929053836399,"runTime":0.94055555555556,"JobDescription":"starccm_test","GPU_Cost":0,"CPU_Cost":6.1136111111111,"Mem_Cost":0.081929053836399,"App_Cost":61.136111111111},{"EndDate":"2020\/07\/23","GPU_Hours":0,"App":"Fluent","JobName":"cubevnc","JobId":"5665","Queue":"q_x86_expr","Cluster":"aip","CPU_Hours":6.7266666666667,"User":"simforgetest3","Mem_GB_Hours":0.0096706867218018,"runTime":0.84083333333333,"JobDescription":"fluent_test","GPU_Cost":0,"CPU_Cost":3.3633333333333,"Mem_Cost":0.00096706867218018,"App_Cost":33.633333333333},{"EndDate":"2020\/07\/23","GPU_Hours":0,"App":"","JobName":"swof_\/home\/export\/base\/nsccwuxi_amd\/simforgetest3\/WORK\/ZHL\/OF-GUI_Decompose15316","JobId":"5677","Queue":"q_x86_expr","Cluster":"aip","CPU_Hours":0.014444444444444,"User":"simforgetest3","Mem_GB_Hours":0,"runTime":0.014444444444444,"JobDescription":"","GPU_Cost":0,"CPU_Cost":0.0072222222222222,"Mem_Cost":0,"App_Cost":0},{"EndDate":"2020\/07\/23","GPU_Hours":0,"App":"","JobName":"swof_\/home\/export\/base\/nsccwuxi_amd\/simforgetest3\/WORK\/ZHL\/OF-GUI_Setfields1272","JobId":"5679","Queue":"q_x86_expr","Cluster":"aip","CPU_Hours":0.0086111111111111,"User":"simforgetest3","Mem_GB_Hours":9.969605339898e-5,"runTime":0.0086111111111111,"JobDescription":"","GPU_Cost":0,"CPU_Cost":0.0043055555555556,"Mem_Cost":9.969605339898e-6,"App_Cost":0},{"EndDate":"2020\/07\/23","GPU_Hours":0,"App":"","JobName":"swof_\/home\/export\/base\/nsccwuxi_amd\/simforgetest3\/WORK\/ZHL\/OF-GUI_Decompose86829","JobId":"5680","Queue":"q_x86_expr","Cluster":"aip","CPU_Hours":0.013888888888889,"User":"simforgetest3","Mem_GB_Hours":0.00016080008612739,"runTime":0.013888888888889,"JobDescription":"","GPU_Cost":0,"CPU_Cost":0.0069444444444444,"Mem_Cost":1.6080008612739e-5,"App_Cost":0},{"EndDate":"2020\/07\/23","GPU_Hours":0,"App":"interFoam","JobName":"swof_\/home\/export\/base\/nsccwuxi_amd\/simforgetest3\/WORK\/ZHL\/OF-GUI_Calculate96390","JobId":"5701","Queue":"q_x86_expr","Cluster":"aip","CPU_Hours":4.06,"User":"simforgetest3","Mem_GB_Hours":0.0039209620157878,"runTime":0.33833333333333,"JobDescription":"","GPU_Cost":0,"CPU_Cost":2.03,"Mem_Cost":0.00039209620157878,"App_Cost":0},{"EndDate":"2020\/07\/23","GPU_Hours":0,"App":"interFoam","JobName":"swof_\/home\/export\/base\/nsccwuxi_amd\/simforgetest3\/WORK\/ZHL\/OF-GUI_Calculate86533","JobId":"5702","Queue":"q_x86_expr","Cluster":"aip","CPU_Hours":10.046666666667,"User":"simforgetest3","Mem_GB_Hours":0.0097058041890462,"runTime":0.83722222222222,"JobDescription":"","GPU_Cost":0,"CPU_Cost":5.0233333333333,"Mem_Cost":0.00097058041890462,"App_Cost":0}],"User":"simforgetest3"}