{
 "User": "baiyj",
 "Queues": "all",
 "Clusters": [
  "aip"
 ],
 "Month": "2020-11",
 "CPU_Hours": 4.080716024166667,
 "Mem_GB_Hours": 1.361900705784754,
 "GPU_Hours": 4.001827135277778,
 "App_Cost": 0.39444444444444443,
 "CPU_Cost": 2.0403580120833333,
 "Mem_Cost": 0,
 "GPU_Cost": 2.000913567638889,
 "Total_Cost": 5.611053788540277,
 "App_Hours": {
  "AnsysAPDL": {
   "Hours": 0.04194444444444445,
   "Cost": 0.20972222222222225
  },
  "LS-DYNA": {
   "Hours": 0.036944444444444446,
   "Cost": 0.18472222222222223
  },
  "LSPrePost": {
   "Hours": 4.001827135277778,
   "Cost": 0
  }
 },
 "Details": [
  {
   "CPU_Hours": 0.010277777777777778,
   "Mem_GB_Hours": 0.0001452212863498264,
   "GPU_Hours": 0,
   "Runtime": 0.010277777777777778,
   "App_Hours": 0.010277777777777778,
   "JobId": "15975",
   "Queue": "q_x86_expr",
   "User": "baiyj",
   "App": "LS-DYNA",
   "JobDescription": "yj_job",
   "JobName": "/home/export/online3/amd_share/shangruan/bin/dynayaml single",
   "Cluster": "aip",
   "CPU_Cost": 0.005138888888888889,
   "Mem_Cost": 0,
   "GPU_Cost": 0,
   "App_Cost": 0.05138888888888889,
   "StartDate": "2020/11/05",
   "Project": "default"
  },
  {
   "CPU_Hours": 4.001827135277778,
   "Mem_GB_Hours": 1.358535455091327,
   "GPU_Hours": 4.001827135277778,
   "Runtime": 4.001827135277778,
   "App_Hours": 4.001827135277778,
   "JobId": "15974",
   "Queue": "local",
   "User": "baiyj",
   "App": "LSPrePost",
   "JobDescription": "yj_job",
   "JobName": "cubevnc",
   "Cluster": "aip",
   "CPU_Cost": 2.000913567638889,
   "Mem_Cost": 0,
   "GPU_Cost": 2.000913567638889,
   "App_Cost": 0,
   "StartDate": "2020/11/05",
   "Project": "default"
  },
  {
   "CPU_Hours": 0.019444444444444445,
   "Mem_GB_Hours": 0.00013740857442220053,
   "GPU_Hours": 0,
   "Runtime": 0.009722222222222222,
   "App_Hours": 0.019444444444444445,
   "JobId": "15977",
   "Queue": "q_x86_expr",
   "User": "baiyj",
   "App": "LS-DYNA",
   "JobDescription": "bomb",
   "JobName": "/home/export/online3/amd_share/shangruan/bin/dynayaml /home/export/base/nsccwuxi_amd/baiyj/WORK/jobdata/default/yj_job/water_bomb_xihuaJC.k single",
   "Cluster": "aip",
   "CPU_Cost": 0.009722222222222222,
   "Mem_Cost": 0,
   "GPU_Cost": 0,
   "App_Cost": 0.09722222222222222,
   "StartDate": "2020/11/05",
   "Project": "default"
  },
  {
   "CPU_Hours": 0.007222222222222222,
   "Mem_GB_Hours": 0.00010201983981662325,
   "GPU_Hours": 0,
   "Runtime": 0.007222222222222222,
   "App_Hours": 0.007222222222222222,
   "JobId": "15976",
   "Queue": "q_x86_expr",
   "User": "baiyj",
   "App": "LS-DYNA",
   "JobDescription": "yj_job",
   "JobName": "/home/export/online3/amd_share/shangruan/bin/dynayaml single",
   "Cluster": "aip",
   "CPU_Cost": 0.003611111111111111,
   "Mem_Cost": 0,
   "GPU_Cost": 0,
   "App_Cost": 0.03611111111111111,
   "StartDate": "2020/11/05",
   "Project": "default"
  },
  {
   "CPU_Hours": 0.0175,
   "Mem_GB_Hours": 0.0012000274658203127,
   "GPU_Hours": 0,
   "Runtime": 0.0175,
   "App_Hours": 0.0175,
   "JobId": "15972",
   "Queue": "q_x86_expr",
   "User": "baiyj",
   "App": "AnsysAPDL",
   "JobDescription": "yj_job",
   "JobName": "cubevnc",
   "Cluster": "aip",
   "CPU_Cost": 0.00875,
   "Mem_Cost": 0,
   "GPU_Cost": 0,
   "App_Cost": 0.08750000000000001,
   "StartDate": "2020/11/05",
   "Project": "default"
  },
  {
   "CPU_Hours": 0.024444444444444446,
   "Mem_GB_Hours": 0.0017805735270182293,
   "GPU_Hours": 0,
   "Runtime": 0.024444444444444446,
   "App_Hours": 0.024444444444444446,
   "JobId": "15973",
   "Queue": "q_x86_expr",
   "User": "baiyj",
   "App": "AnsysAPDL",
   "JobDescription": "yj_job",
   "JobName": "cubevnc",
   "Cluster": "aip",
   "CPU_Cost": 0.012222222222222223,
   "Mem_Cost": 0,
   "GPU_Cost": 0,
   "App_Cost": 0.12222222222222223,
   "StartDate": "2020/11/05",
   "Project": "default"
  }
 ]
}