{
 "User": "simforge5",
 "Queues": "all",
 "Clusters": [
  "aip"
 ],
 "Month": "2020-10",
 "CPU_Hours": 18.520971849263056,
 "Mem_GB_Hours": 1.150456480809323,
 "GPU_Hours": 2.4537204044030556,
 "App_Cost": 80.33625722429998,
 "CPU_Cost": 9.260485924631528,
 "Mem_Cost": 0,
 "GPU_Cost": 1.2268602022015278,
 "Total_Cost": 156.1749471548039,
 "App_Hours": {
  "LS-DYNA": {
   "Hours": 16.06725144486,
   "Cost": 80.33625722429998
  },
  "LSPrePost": {
   "Hours": 2.4537204044030556,
   "Cost": 0
  }
 },
 "Details": [
  {
   "CPU_Hours": 0.23306616912666667,
   "Mem_GB_Hours": 0.09108985122058934,
   "GPU_Hours": 0.23306616912666667,
   "Runtime": 0.23306616912666667,
   "App_Hours": 0.23306616912666667,
   "JobId": "13865",
   "Queue": "local",
   "User": "simforge5",
   "App": "LSPrePost",
   "JobDescription": "LSPrePost",
   "JobName": "cubevnc",
   "Cluster": "aip",
   "CPU_Cost": 0.11653308456333333,
   "Mem_Cost": 0,
   "GPU_Cost": 0.11653308456333333,
   "App_Cost": 0,
   "StartDate": "2020/10/20",
   "Project": "default"
  },
  {
   "CPU_Hours": 2.52016408438,
   "Mem_GB_Hours": 0.0011380173625506686,
   "GPU_Hours": 0,
   "Runtime": 0.10500683684916666,
   "App_Hours": 2.52016408438,
   "JobId": "13761",
   "Queue": "q_x86_expr",
   "User": "simforge5",
   "App": "LS-DYNA",
   "JobDescription": "underexplosionforlt.k",
   "JobName": "/home/export/online3/simforge5/jobdata/LS_DYNA/waterexplosion/underexplosionforlt.k",
   "Cluster": "aip",
   "CPU_Cost": 1.26008204219,
   "Mem_Cost": 0,
   "GPU_Cost": 0,
   "App_Cost": 12.6008204219,
   "StartDate": "2020/10/19",
   "Project": "default"
  },
  {
   "CPU_Hours": 2.0666666666666664,
   "Mem_GB_Hours": 0.0009483443366156684,
   "GPU_Hours": 0,
   "Runtime": 0.08611111111111111,
   "App_Hours": 2.0666666666666664,
   "JobId": "13868",
   "Queue": "q_x86_vio_share",
   "User": "simforge5",
   "App": "LS-DYNA",
   "JobDescription": "1.k",
   "JobName": "/home/export/online3/simforge5/jobdata/LS_DYNA/airexplosion/1.k",
   "Cluster": "aip",
   "CPU_Cost": 1.0333333333333332,
   "Mem_Cost": 0,
   "GPU_Cost": 0,
   "App_Cost": 10.333333333333332,
   "StartDate": "2020/10/20",
   "Project": "default"
  },
  {
   "CPU_Hours": 0.26111794796027776,
   "Mem_GB_Hours": 0.15301280372152545,
   "GPU_Hours": 0.26111794796027776,
   "Runtime": 0.26111794796027776,
   "App_Hours": 0.26111794796027776,
   "JobId": "13760",
   "Queue": "local",
   "User": "simforge5",
   "App": "LSPrePost",
   "JobDescription": "LSPrePost",
   "JobName": "cubevnc",
   "Cluster": "aip",
   "CPU_Cost": 0.13055897398013888,
   "Mem_Cost": 0,
   "GPU_Cost": 0.13055897398013888,
   "App_Cost": 0,
   "StartDate": "2020/10/19",
   "Project": "default"
  },
  {
   "CPU_Hours": 2.6868318431200002,
   "Mem_GB_Hours": 0.001213278653828926,
   "GPU_Hours": 0,
   "Runtime": 0.11195132679666667,
   "App_Hours": 2.6868318431200002,
   "JobId": "13764",
   "Queue": "q_x86_expr",
   "User": "simforge5",
   "App": "LS-DYNA",
   "JobDescription": "underexplosionforlt.k",
   "JobName": "/home/export/online3/simforge5/jobdata/LS_DYNA/waterexplosion/underexplosionforlt.k",
   "Cluster": "aip",
   "CPU_Cost": 1.3434159215600001,
   "Mem_Cost": 0,
   "GPU_Cost": 0,
   "App_Cost": 13.434159215600001,
   "StartDate": "2020/10/19",
   "Project": "default"
  },
  {
   "CPU_Hours": 0.4733333333333333,
   "Mem_GB_Hours": 0.00021389113532172308,
   "GPU_Hours": 0,
   "Runtime": 0.01972222222222222,
   "App_Hours": 0.4733333333333333,
   "JobId": "13750",
   "Queue": "q_x86_expr",
   "User": "simforge5",
   "App": "LS-DYNA",
   "JobDescription": "1.k",
   "JobName": "/home/export/online3/simforge5/jobdata/LS_DYNA/explosion/1.k",
   "Cluster": "aip",
   "CPU_Cost": 0.23666666666666664,
   "Mem_Cost": 0,
   "GPU_Cost": 0,
   "App_Cost": 2.3666666666666663,
   "StartDate": "2020/10/19",
   "Project": "default"
  },
  {
   "CPU_Hours": 5.773588850693334,
   "Mem_GB_Hours": 0.002609902491787567,
   "GPU_Hours": 0,
   "Runtime": 0.24056620211222224,
   "App_Hours": 5.773588850693334,
   "JobId": "13740",
   "Queue": "q_x86_expr",
   "User": "simforge5",
   "App": "LS-DYNA",
   "JobDescription": "airexplosion.k",
   "JobName": "/home/export/base/nsccwuxi_amd/simforge5/WORK/jobdata/LS_DYNA/explosion/airexplosion.k",
   "Cluster": "aip",
   "CPU_Cost": 2.886794425346667,
   "Mem_Cost": 0,
   "GPU_Cost": 0,
   "App_Cost": 28.86794425346667,
   "StartDate": "2020/10/19",
   "Project": "default"
  },
  {
   "CPU_Hours": 0.29501093807805556,
   "Mem_GB_Hours": 0.10514345480973457,
   "GPU_Hours": 0.29501093807805556,
   "Runtime": 0.29501093807805556,
   "App_Hours": 0.29501093807805556,
   "JobId": "13866",
   "Queue": "local",
   "User": "simforge5",
   "App": "LSPrePost",
   "JobDescription": "LSPrePost",
   "JobName": "cubevnc",
   "Cluster": "aip",
   "CPU_Cost": 0.14750546903902778,
   "Mem_Cost": 0,
   "GPU_Cost": 0.14750546903902778,
   "App_Cost": 0,
   "StartDate": "2020/10/20",
   "Project": "default"
  },
  {
   "CPU_Hours": 0.43335671384361113,
   "Mem_GB_Hours": 0.163119104919387,
   "GPU_Hours": 0.43335671384361113,
   "Runtime": 0.43335671384361113,
   "App_Hours": 0.43335671384361113,
   "JobId": "13751",
   "Queue": "local",
   "User": "simforge5",
   "App": "LSPrePost",
   "JobDescription": "LSPrePost",
   "JobName": "cubevnc",
   "Cluster": "aip",
   "CPU_Cost": 0.21667835692180556,
   "Mem_Cost": 0,
   "GPU_Cost": 0.21667835692180556,
   "App_Cost": 0,
   "StartDate": "2020/10/19",
   "Project": "default"
  },
  {
   "CPU_Hours": 0.12666666666666668,
   "Mem_GB_Hours": 0.00005725860595703125,
   "GPU_Hours": 0,
   "Runtime": 0.005277777777777778,
   "App_Hours": 0.12666666666666668,
   "JobId": "13745",
   "Queue": "q_x86_expr",
   "User": "simforge5",
   "App": "LS-DYNA",
   "JobDescription": "test.k",
   "JobName": "/home/export/online3/simforge5/jobdata/LS_DYNA/explosion/test.k",
   "Cluster": "aip",
   "CPU_Cost": 0.06333333333333334,
   "Mem_Cost": 0,
   "GPU_Cost": 0,
   "App_Cost": 0.6333333333333334,
   "StartDate": "2020/10/19",
   "Project": "default"
  },
  {
   "CPU_Hours": 0.035,
   "Mem_GB_Hours": 0.014723300933837892,
   "GPU_Hours": 0.035,
   "Runtime": 0.035,
   "App_Hours": 0.035,
   "JobId": "13744",
   "Queue": "local",
   "User": "simforge5",
   "App": "LSPrePost",
   "JobDescription": "LSPrePost",
   "JobName": "cubevnc",
   "Cluster": "aip",
   "CPU_Cost": 0.0175,
   "Mem_Cost": 0,
   "GPU_Cost": 0.0175,
   "App_Cost": 0,
   "StartDate": "2020/10/19",
   "Project": "default"
  },
  {
   "CPU_Hours": 0.007222222222222222,
   "Mem_GB_Hours": 0.0022149022420247396,
   "GPU_Hours": 0.007222222222222222,
   "Runtime": 0.007222222222222222,
   "App_Hours": 0.007222222222222222,
   "JobId": "13759",
   "Queue": "local",
   "User": "simforge5",
   "App": "LSPrePost",
   "JobDescription": "LSPrePost",
   "JobName": "cubevnc",
   "Cluster": "aip",
   "CPU_Cost": 0.003611111111111111,
   "Mem_Cost": 0,
   "GPU_Cost": 0.003611111111111111,
   "App_Cost": 0,
   "StartDate": "2020/10/19",
   "Project": "default"
  },
  {
   "CPU_Hours": 0.09945128015388889,
   "Mem_GB_Hours": 0.1002303391424503,
   "GPU_Hours": 0.09945128015388889,
   "Runtime": 0.09945128015388889,
   "App_Hours": 0.09945128015388889,
   "JobId": "13742",
   "Queue": "local",
   "User": "simforge5",
   "App": "LSPrePost",
   "JobDescription": "LSPrePost",
   "JobName": "cubevnc",
   "Cluster": "aip",
   "CPU_Cost": 0.049725640076944445,
   "Mem_Cost": 0,
   "GPU_Cost": 0.049725640076944445,
   "App_Cost": 0,
   "StartDate": "2020/10/19",
   "Project": "default"
  },
  {
   "CPU_Hours": 0.13333333333333333,
   "Mem_GB_Hours": 0.00006020863850911458,
   "GPU_Hours": 0,
   "Runtime": 0.005555555555555556,
   "App_Hours": 0.13333333333333333,
   "JobId": "13755",
   "Queue": "q_x86_expr",
   "User": "simforge5",
   "App": "LS-DYNA",
   "JobDescription": "3.k",
   "JobName": "/home/export/online3/simforge5/jobdata/LS_DYNA/3/3.k",
   "Cluster": "aip",
   "CPU_Cost": 0.06666666666666667,
   "Mem_Cost": 0,
   "GPU_Cost": 0,
   "App_Cost": 0.6666666666666666,
   "StartDate": "2020/10/19",
   "Project": "default"
  },
  {
   "CPU_Hours": 0.19529073667833335,
   "Mem_GB_Hours": 0.08253275719259238,
   "GPU_Hours": 0.19529073667833335,
   "Runtime": 0.19529073667833335,
   "App_Hours": 0.19529073667833335,
   "JobId": "13754",
   "Queue": "local",
   "User": "simforge5",
   "App": "LSPrePost",
   "JobDescription": "LSPrePost",
   "JobName": "cubevnc",
   "Cluster": "aip",
   "CPU_Cost": 0.09764536833916668,
   "Mem_Cost": 0,
   "GPU_Cost": 0.09764536833916668,
   "App_Cost": 0,
   "StartDate": "2020/10/19",
   "Project": "default"
  },
  {
   "CPU_Hours": 0.008055555555555555,
   "Mem_GB_Hours": 0.0021905220879448782,
   "GPU_Hours": 0.008055555555555555,
   "Runtime": 0.008055555555555555,
   "App_Hours": 0.008055555555555555,
   "JobId": "13863",
   "Queue": "local",
   "User": "simforge5",
   "App": "LSPrePost",
   "JobDescription": "LSPrePost",
   "JobName": "cubevnc",
   "Cluster": "aip",
   "CPU_Cost": 0.004027777777777778,
   "Mem_Cost": 0,
   "GPU_Cost": 0.004027777777777778,
   "App_Cost": 0,
   "StartDate": "2020/10/20",
   "Project": "default"
  },
  {
   "CPU_Hours": 0.06138888888888889,
   "Mem_GB_Hours": 0.027094394895765518,
   "GPU_Hours": 0.06138888888888889,
   "Runtime": 0.06138888888888889,
   "App_Hours": 0.06138888888888889,
   "JobId": "13859",
   "Queue": "local",
   "User": "simforge5",
   "App": "LSPrePost",
   "JobDescription": "LSPrePost",
   "JobName": "cubevnc",
   "Cluster": "aip",
   "CPU_Cost": 0.030694444444444444,
   "Mem_Cost": 0,
   "GPU_Cost": 0.030694444444444444,
   "App_Cost": 0,
   "StartDate": "2020/10/20",
   "Project": "default"
  },
  {
   "CPU_Hours": 0.14001107446277777,
   "Mem_GB_Hours": 0.07114329375733128,
   "GPU_Hours": 0.14001107446277777,
   "Runtime": 0.14001107446277777,
   "App_Hours": 0.14001107446277777,
   "JobId": "13947",
   "Queue": "local",
   "User": "simforge5",
   "App": "LSPrePost",
   "JobDescription": "LSPrePost",
   "JobName": "cubevnc",
   "Cluster": "aip",
   "CPU_Cost": 0.07000553723138889,
   "Mem_Cost": 0,
   "GPU_Cost": 0.07000553723138889,
   "App_Cost": 0,
   "StartDate": "2020/10/21",
   "Project": "default"
  },
  {
   "CPU_Hours": 0.043333333333333335,
   "Mem_GB_Hours": 0.01840126037597656,
   "GPU_Hours": 0.043333333333333335,
   "Runtime": 0.043333333333333335,
   "App_Hours": 0.043333333333333335,
   "JobId": "13747",
   "Queue": "local",
   "User": "simforge5",
   "App": "LSPrePost",
   "JobDescription": "LSPrePost",
   "JobName": "cubevnc",
   "Cluster": "aip",
   "CPU_Cost": 0.021666666666666667,
   "Mem_Cost": 0,
   "GPU_Cost": 0.021666666666666667,
   "App_Cost": 0,
   "StartDate": "2020/10/19",
   "Project": "default"
  },
  {
   "CPU_Hours": 0.21139577124111109,
   "Mem_GB_Hours": 0.11468802921915947,
   "GPU_Hours": 0.21139577124111109,
   "Runtime": 0.21139577124111109,
   "App_Hours": 0.21139577124111109,
   "JobId": "13763",
   "Queue": "local",
   "User": "simforge5",
   "App": "LSPrePost",
   "JobDescription": "LSPrePost",
   "JobName": "cubevnc",
   "Cluster": "aip",
   "CPU_Cost": 0.10569788562055554,
   "Mem_Cost": 0,
   "GPU_Cost": 0.10569788562055554,
   "App_Cost": 0,
   "StartDate": "2020/10/19",
   "Project": "default"
  },
  {
   "CPU_Hours": 0.075842459635,
   "Mem_GB_Hours": 0.028506206683489445,
   "GPU_Hours": 0.075842459635,
   "Runtime": 0.075842459635,
   "App_Hours": 0.075842459635,
   "JobId": "13862",
   "Queue": "local",
   "User": "simforge5",
   "App": "LSPrePost",
   "JobDescription": "LSPrePost",
   "JobName": "cubevnc",
   "Cluster": "aip",
   "CPU_Cost": 0.0379212298175,
   "Mem_Cost": 0,
   "GPU_Cost": 0.0379212298175,
   "App_Cost": 0,
   "StartDate": "2020/10/20",
   "Project": "default"
  },
  {
   "CPU_Hours": 0.12,
   "Mem_GB_Hours": 0.000054225921630859374,
   "GPU_Hours": 0,
   "Runtime": 0.005,
   "App_Hours": 0.12,
   "JobId": "13860",
   "Queue": "q_x86_vio_share",
   "User": "simforge5",
   "App": "LS-DYNA",
   "JobDescription": "1.k",
   "JobName": "/home/export/online3/simforge5/jobdata/LS_DYNA/airexplosion/1.k",
   "Cluster": "aip",
   "CPU_Cost": 0.06,
   "Mem_Cost": 0,
   "GPU_Cost": 0,
   "App_Cost": 0.6,
   "StartDate": "2020/10/20",
   "Project": "default"
  },
  {
   "CPU_Hours": 0.8,
   "Mem_GB_Hours": 0.0003612518310546875,
   "GPU_Hours": 0,
   "Runtime": 0.03333333333333333,
   "App_Hours": 0.8,
   "JobId": "13948",
   "Queue": "q_x86_vio_share",
   "User": "simforge5",
   "App": "LS-DYNA",
   "JobDescription": "waterexplosion1.k",
   "JobName": "/home/export/online3/simforge5/jobdata/LS_DYNA/waterexplosion/waterexplosion1.k",
   "Cluster": "aip",
   "CPU_Cost": 0.4,
   "Mem_Cost": 0,
   "GPU_Cost": 0,
   "App_Cost": 4,
   "StartDate": "2020/10/21",
   "Project": "default"
  },
  {
   "CPU_Hours": 0.35417731322333335,
   "Mem_GB_Hours": 0.1690925248597229,
   "GPU_Hours": 0.35417731322333335,
   "Runtime": 0.35417731322333335,
   "App_Hours": 0.35417731322333335,
   "JobId": "13739",
   "Queue": "local",
   "User": "simforge5",
   "App": "LSPrePost",
   "JobDescription": "airexplosion1",
   "JobName": "cubevnc",
   "Cluster": "aip",
   "CPU_Cost": 0.17708865661166667,
   "Mem_Cost": 0,
   "GPU_Cost": 0.17708865661166667,
   "App_Cost": 0,
   "StartDate": "2020/10/19",
   "Project": "default"
  },
  {
   "CPU_Hours": 1.3666666666666667,
   "Mem_GB_Hours": 0.0006173557705349392,
   "GPU_Hours": 0,
   "Runtime": 0.05694444444444444,
   "App_Hours": 1.3666666666666667,
   "JobId": "13752",
   "Queue": "q_x86_expr",
   "User": "simforge5",
   "App": "LS-DYNA",
   "JobDescription": "airexplosion2testT.k",
   "JobName": "/home/export/online3/simforge5/jobdata/LS_DYNA/explosion/airexplosion2testT.k",
   "Cluster": "aip",
   "CPU_Cost": 0.6833333333333333,
   "Mem_Cost": 0,
   "GPU_Cost": 0,
   "App_Cost": 6.833333333333334,
   "StartDate": "2020/10/19",
   "Project": "default"
  }
 ]
}