{
 "User": "zhaob",
 "Queues": "all",
 "Clusters": [
  "aip"
 ],
 "Month": "2021-01",
 "CPU_Hours": 28.171815842635823,
 "Mem_GB_Hours": 12.234912956597327,
 "GPU_Hours": 23.75951955612027,
 "App_Cost": 0,
 "CPU_Cost": 5.634363168527165,
 "Mem_Cost": 0,
 "GPU_Cost": 4.751903911224055,
 "Total_Cost": 13.278547407364114,
 "App_Hours": {
  "LS-DYNA": {
   "Hours": 4.412296286515556,
   "Cost": 0
  },
  "LSPrePost": {
   "Hours": 23.75951955612027,
   "Cost": 0
  }
 },
 "Details": [
  {
   "CPU_Hours": 1.13668561089,
   "Mem_GB_Hours": 0.007266007290596937,
   "GPU_Hours": 0,
   "Runtime": 0.568342805445,
   "App_Hours": 1.13668561089,
   "JobId": "25690",
   "Queue": "q_x86_expr",
   "User": "zhaob",
   "App": "LS-DYNA",
   "JobDescription": "90_degree_75kg_340kpa.key",
   "JobName": "/home/export/online3/zhaob/340kpa_110mm/90_degree_340kpa/90_degree_75kg_340kpa.key",
   "Cluster": "aip",
   "CPU_Cost": 0.22733712217800003,
   "Mem_Cost": 0,
   "GPU_Cost": 0,
   "App_Cost": 0,
   "StartDate": "2021/01/06",
   "Project": "default"
  },
  {
   "CPU_Hours": 23.619514942333605,
   "Mem_GB_Hours": 12.156473313081811,
   "GPU_Hours": 23.619514942333605,
   "Runtime": 23.619514942333605,
   "App_Hours": 23.619514942333605,
   "JobId": "25688",
   "Queue": "local",
   "User": "zhaob",
   "App": "LSPrePost",
   "JobDescription": "1",
   "JobName": "cubevnc",
   "Cluster": "aip",
   "CPU_Cost": 4.723902988466722,
   "Mem_Cost": 0,
   "GPU_Cost": 4.723902988466722,
   "App_Cost": 0,
   "StartDate": "2021/01/06",
   "Project": "default"
  },
  {
   "CPU_Hours": 1.140574499778889,
   "Mem_GB_Hours": 0.0069617661101770145,
   "GPU_Hours": 0,
   "Runtime": 0.5702872498894445,
   "App_Hours": 1.140574499778889,
   "JobId": "25687",
   "Queue": "q_x86_expr",
   "User": "zhaob",
   "App": "LS-DYNA",
   "JobDescription": "45_degree_75kg_340kpa.key",
   "JobName": "/home/export/base/nsccwuxi_amd/zhaob/WORK/340kpa_110mm/45_degree_340kpa/45_degree_75kg_340kpa.key",
   "Cluster": "aip",
   "CPU_Cost": 0.22811489995577783,
   "Mem_Cost": 0,
   "GPU_Cost": 0,
   "App_Cost": 0,
   "StartDate": "2021/01/06",
   "Project": "default"
  },
  {
   "CPU_Hours": 0.9861283427344445,
   "Mem_GB_Hours": 0.006447332197851219,
   "GPU_Hours": 0,
   "Runtime": 0.49306417136722225,
   "App_Hours": 0.9861283427344445,
   "JobId": "25684",
   "Queue": "q_x86_expr",
   "User": "zhaob",
   "App": "LS-DYNA",
   "JobDescription": "30_degree_75kg_340kpa.key",
   "JobName": "/home/export/base/nsccwuxi_amd/zhaob/WORK/340kpa_110mm/30_degree_340kpa/30_degree_75kg_340kpa.key",
   "Cluster": "aip",
   "CPU_Cost": 0.1972256685468889,
   "Mem_Cost": 0,
   "GPU_Cost": 0,
   "App_Cost": 0,
   "StartDate": "2021/01/06",
   "Project": "default"
  },
  {
   "CPU_Hours": 0.07444444444444444,
   "Mem_GB_Hours": 0.02716325971815321,
   "GPU_Hours": 0.07444444444444444,
   "Runtime": 0.07444444444444444,
   "App_Hours": 0.07444444444444444,
   "JobId": "25686",
   "Queue": "local",
   "User": "zhaob",
   "App": "LSPrePost",
   "JobDescription": "1",
   "JobName": "cubevnc",
   "Cluster": "aip",
   "CPU_Cost": 0.014888888888888889,
   "Mem_Cost": 0,
   "GPU_Cost": 0.014888888888888889,
   "App_Cost": 0,
   "StartDate": "2021/01/06",
   "Project": "default"
  },
  {
   "CPU_Hours": 0.06556016934222222,
   "Mem_GB_Hours": 0.023326136899732904,
   "GPU_Hours": 0.06556016934222222,
   "Runtime": 0.06556016934222222,
   "App_Hours": 0.06556016934222222,
   "JobId": "25683",
   "Queue": "local",
   "User": "zhaob",
   "App": "LSPrePost",
   "JobDescription": "1",
   "JobName": "cubevnc",
   "Cluster": "aip",
   "CPU_Cost": 0.013112033868444447,
   "Mem_Cost": 0,
   "GPU_Cost": 0.013112033868444447,
   "App_Cost": 0,
   "StartDate": "2021/01/06",
   "Project": "default"
  },
  {
   "CPU_Hours": 1.1489078331122222,
   "Mem_GB_Hours": 0.007275141299005373,
   "GPU_Hours": 0,
   "Runtime": 0.5744539165561111,
   "App_Hours": 1.1489078331122222,
   "JobId": "25689",
   "Queue": "q_x86_expr",
   "User": "zhaob",
   "App": "LS-DYNA",
   "JobDescription": "60_degree_75kg_340kpa.key",
   "JobName": "/home/export/base/nsccwuxi_amd/zhaob/WORK/340kpa_110mm/60_degree_340kpa/60_degree_75kg_340kpa.key",
   "Cluster": "aip",
   "CPU_Cost": 0.22978156662244448,
   "Mem_Cost": 0,
   "GPU_Cost": 0,
   "App_Cost": 0,
   "StartDate": "2021/01/06",
   "Project": "default"
  }
 ]
}