{
 "User": "hozonauto",
 "Queues": "all",
 "Clusters": [
  "aip"
 ],
 "Month": "2020-11",
 "CPU_Hours": 4045.5179965443995,
 "Mem_GB_Hours": 182.33088211827757,
 "GPU_Hours": 33.190331498438894,
 "App_Cost": 0,
 "CPU_Cost": 809.1035993088789,
 "Mem_Cost": 0,
 "GPU_Cost": 6.638066299687779,
 "Total_Cost": 956.8531962176243,
 "App_Hours": {
  "Abaqus": {
   "Hours": 25.841552537373058,
   "Cost": 0
  },
  "LS-DYNA": {
   "Hours": 431.7444483549987,
   "Cost": 0
  },
  "LSPrePost": {
   "Hours": 15.842348126185836,
   "Cost": 0
  },
  "StarCCM": {
   "Hours": 3572.0896475258414,
   "Cost": 0
  }
 },
 "Details": [
  {
   "CPU_Hours": 1.87,
   "Mem_GB_Hours": 0.013278770446777343,
   "GPU_Hours": 0,
   "Runtime": 0.11,
   "App_Hours": 1.87,
   "JobId": "16335",
   "Queue": "q_x86_vio_share_plus",
   "User": "hozonauto",
   "App": "StarCCM",
   "JobDescription": "StarCCM",
   "JobName": "cubevnc",
   "Cluster": "aip",
   "CPU_Cost": 0.37400000000000005,
   "Mem_Cost": 0,
   "GPU_Cost": 0,
   "App_Cost": 0,
   "StartDate": "2020/11/12",
   "Project": "default"
  },
  {
   "CPU_Hours": 0.010833333333333334,
   "Mem_GB_Hours": 0.00015311241149902345,
   "GPU_Hours": 0,
   "Runtime": 0.010833333333333334,
   "App_Hours": 0.010833333333333334,
   "JobId": "16415",
   "Queue": "q_x86_expr",
   "User": "hozonauto",
   "App": "LS-DYNA",
   "JobDescription": "Batch-LS-DYNA",
   "JobName": "/home/export/online3/amd_share/shangruan/bin/dynayaml /home/export/base/nsccwuxi_hozonauto/hozonauto/WORK/ep30-frb/062_EP30_shaft.k single",
   "Cluster": "aip",
   "CPU_Cost": 0.002166666666666667,
   "Mem_Cost": 0,
   "GPU_Cost": 0,
   "App_Cost": 0,
   "StartDate": "2020/11/12",
   "Project": "default"
  },
  {
   "CPU_Hours": 10.266952620970834,
   "Mem_GB_Hours": 4.346144723323588,
   "GPU_Hours": 0,
   "Runtime": 0.31111977639305555,
   "App_Hours": 10.266952620970834,
   "JobId": "16247",
   "Queue": "q_x86_vio_share_plus",
   "User": "hozonauto",
   "App": "StarCCM",
   "JobDescription": "StarCCM",
   "JobName": "cubevnc",
   "Cluster": "aip",
   "CPU_Cost": 2.0533905241941666,
   "Mem_Cost": 0,
   "GPU_Cost": 0,
   "App_Cost": 0,
   "StartDate": "2020/11/11",
   "Project": "default"
  },
  {
   "CPU_Hours": 6.809834603615,
   "Mem_GB_Hours": 0.047280388206192576,
   "GPU_Hours": 0,
   "Runtime": 0.40057850609500006,
   "App_Hours": 6.809834603615,
   "JobId": "16329",
   "Queue": "q_x86_vio_share_plus",
   "User": "hozonauto",
   "App": "StarCCM",
   "JobDescription": "StarCCM",
   "JobName": "cubevnc",
   "Cluster": "aip",
   "CPU_Cost": 1.361966920723,
   "Mem_Cost": 0,
   "GPU_Cost": 0,
   "App_Cost": 0,
   "StartDate": "2020/11/12",
   "Project": "default"
  },
  {
   "CPU_Hours": 31.007376565530834,
   "Mem_GB_Hours": 0.20950402663296852,
   "GPU_Hours": 0,
   "Runtime": 1.8239633273841669,
   "App_Hours": 31.007376565530834,
   "JobId": "16339",
   "Queue": "q_x86_vio_share_plus",
   "User": "hozonauto",
   "App": "StarCCM",
   "JobDescription": "StarCCM",
   "JobName": "cubevnc",
   "Cluster": "aip",
   "CPU_Cost": 6.201475313106167,
   "Mem_Cost": 0,
   "GPU_Cost": 0,
   "App_Cost": 0,
   "StartDate": "2020/11/12",
   "Project": "default"
  },
  {
   "CPU_Hours": 215.54233956291995,
   "Mem_GB_Hours": 0.031431038458015564,
   "GPU_Hours": 0,
   "Runtime": 4.4904654075608335,
   "App_Hours": 215.54233956291995,
   "JobId": "16545",
   "Queue": "q_x86_cn_sim",
   "User": "hozonauto",
   "App": "LS-DYNA",
   "JobDescription": "Batch-LS-DYNA",
   "JobName": "/home/export/online3/amd_share/shangruan/bin/dynayaml /home/export/base/nsccwuxi_hozonauto/hozonauto/WORK/ep30-frb/EP30_Front-Impact_1104.k single",
   "Cluster": "aip",
   "CPU_Cost": 43.10846791258401,
   "Mem_Cost": 0,
   "GPU_Cost": 0,
   "App_Cost": 0,
   "StartDate": "2020/11/13",
   "Project": "default"
  },
  {
   "CPU_Hours": 0.37777777777777777,
   "Mem_GB_Hours": 0.013590579562717014,
   "GPU_Hours": 0,
   "Runtime": 0.022222222222222223,
   "App_Hours": 0.37777777777777777,
   "JobId": "16244",
   "Queue": "q_x86_expr_plus",
   "User": "hozonauto",
   "App": "StarCCM",
   "JobDescription": "StarCCM",
   "JobName": "cubevnc",
   "Cluster": "aip",
   "CPU_Cost": 0.07555555555555556,
   "Mem_Cost": 0,
   "GPU_Cost": 0,
   "App_Cost": 0,
   "StartDate": "2020/11/11",
   "Project": "default"
  },
  {
   "CPU_Hours": 0.03666666666666667,
   "Mem_GB_Hours": 0.002384821573893229,
   "GPU_Hours": 0,
   "Runtime": 0.018333333333333333,
   "App_Hours": 0.03666666666666667,
   "JobId": "16124",
   "Queue": "q_x86_vio_share_plus",
   "User": "hozonauto",
   "App": "StarCCM",
   "JobDescription": "StarCCM",
   "JobName": "cubevnc",
   "Cluster": "aip",
   "CPU_Cost": 0.007333333333333334,
   "Mem_Cost": 0,
   "GPU_Cost": 0,
   "App_Cost": 0,
   "StartDate": "2020/11/11",
   "Project": "default"
  },
  {
   "CPU_Hours": 13.330560624179999,
   "Mem_GB_Hours": 2.1848783394507985,
   "GPU_Hours": 0,
   "Runtime": 1.4811734026866668,
   "App_Hours": 13.330560624179999,
   "JobId": "16232",
   "Queue": "q_x86_vio_share_plus",
   "User": "hozonauto",
   "App": "StarCCM",
   "JobDescription": "StarCCM",
   "JobName": "cubevnc",
   "Cluster": "aip",
   "CPU_Cost": 2.6661121248360002,
   "Mem_Cost": 0,
   "GPU_Cost": 0,
   "App_Cost": 0,
   "StartDate": "2020/11/11",
   "Project": "default"
  },
  {
   "CPU_Hours": 0.9886539179208332,
   "Mem_GB_Hours": 0.007183894219556993,
   "GPU_Hours": 0,
   "Runtime": 0.9886539179208332,
   "App_Hours": 0.9886539179208332,
   "JobId": "16416",
   "Queue": "q_x86_expr",
   "User": "hozonauto",
   "App": "LS-DYNA",
   "JobDescription": "Batch-LS-DYNA",
   "JobName": "/home/export/online3/amd_share/shangruan/bin/dynayaml /home/export/base/nsccwuxi_hozonauto/hozonauto/WORK/ep30-frb/EP30_Front-Impact_1104.k single",
   "Cluster": "aip",
   "CPU_Cost": 0.19773078358416668,
   "Mem_Cost": 0,
   "GPU_Cost": 0,
   "App_Cost": 0,
   "StartDate": "2020/11/12",
   "Project": "default"
  },
  {
   "CPU_Hours": 4.547597383659444,
   "Mem_GB_Hours": 0.24419604574761294,
   "GPU_Hours": 0,
   "Runtime": 0.26750572845055554,
   "App_Hours": 4.547597383659444,
   "JobId": "16227",
   "Queue": "q_x86_vio_share_plus",
   "User": "hozonauto",
   "App": "StarCCM",
   "JobDescription": "StarCCM",
   "JobName": "cubevnc",
   "Cluster": "aip",
   "CPU_Cost": 0.9095194767318889,
   "Mem_Cost": 0,
   "GPU_Cost": 0,
   "App_Cost": 0,
   "StartDate": "2020/11/11",
   "Project": "default"
  },
  {
   "CPU_Hours": 296.82965195210255,
   "Mem_GB_Hours": 8.869399292133451,
   "GPU_Hours": 0,
   "Runtime": 8.994837937942497,
   "App_Hours": 296.82965195210255,
   "JobId": "16137",
   "Queue": "q_x86_vio_share_plus",
   "User": "hozonauto",
   "App": "StarCCM",
   "JobDescription": "StarCCM",
   "JobName": "cubevnc",
   "Cluster": "aip",
   "CPU_Cost": 59.36593039042051,
   "Mem_Cost": 0,
   "GPU_Cost": 0,
   "App_Cost": 0,
   "StartDate": "2020/11/11",
   "Project": "default"
  },
  {
   "CPU_Hours": 0.37305555555555553,
   "Mem_GB_Hours": 0.003537560568915473,
   "GPU_Hours": 0,
   "Runtime": 0.021944444444444444,
   "App_Hours": 0.37305555555555553,
   "JobId": "16255",
   "Queue": "q_x86_expr_plus",
   "User": "hozonauto",
   "App": "StarCCM",
   "JobDescription": "StarCCM",
   "JobName": "cubevnc",
   "Cluster": "aip",
   "CPU_Cost": 0.07461111111111111,
   "Mem_Cost": 0,
   "GPU_Cost": 0,
   "App_Cost": 0,
   "StartDate": "2020/11/12",
   "Project": "default"
  },
  {
   "CPU_Hours": 4.415375161437222,
   "Mem_GB_Hours": 0.20827187009278683,
   "GPU_Hours": 0,
   "Runtime": 0.25972795067277776,
   "App_Hours": 4.415375161437222,
   "JobId": "16228",
   "Queue": "q_x86_vio_share_plus",
   "User": "hozonauto",
   "App": "StarCCM",
   "JobDescription": "StarCCM",
   "JobName": "cubevnc",
   "Cluster": "aip",
   "CPU_Cost": 0.8830750322874444,
   "Mem_Cost": 0,
   "GPU_Cost": 0,
   "App_Cost": 0,
   "StartDate": "2020/11/11",
   "Project": "default"
  },
  {
   "CPU_Hours": 0.16,
   "Mem_GB_Hours": 0.011953057183159723,
   "GPU_Hours": 0,
   "Runtime": 0.017777777777777778,
   "App_Hours": 0.16,
   "JobId": "16121",
   "Queue": "q_x86_expr_plus",
   "User": "hozonauto",
   "App": "StarCCM",
   "JobDescription": "StarCCM",
   "JobName": "cubevnc",
   "Cluster": "aip",
   "CPU_Cost": 0.032,
   "Mem_Cost": 0,
   "GPU_Cost": 0,
   "App_Cost": 0,
   "StartDate": "2020/11/10",
   "Project": "default"
  },
  {
   "CPU_Hours": 61.602353987148334,
   "Mem_GB_Hours": 0.21801766252998314,
   "GPU_Hours": 0,
   "Runtime": 1.866737999610555,
   "App_Hours": 61.602353987148334,
   "JobId": "16353",
   "Queue": "q_x86_vio_share_plus",
   "User": "hozonauto",
   "App": "StarCCM",
   "JobDescription": "aa",
   "JobName": "cubevnc",
   "Cluster": "aip",
   "CPU_Cost": 12.320470797429667,
   "Mem_Cost": 0,
   "GPU_Cost": 0,
   "App_Cost": 0,
   "StartDate": "2020/11/12",
   "Project": "default"
  },
  {
   "CPU_Hours": 1.87,
   "Mem_GB_Hours": 0.017012100219726562,
   "GPU_Hours": 0,
   "Runtime": 0.11,
   "App_Hours": 1.87,
   "JobId": "16336",
   "Queue": "q_x86_vio_share_plus",
   "User": "hozonauto",
   "App": "StarCCM",
   "JobDescription": "StarCCM",
   "JobName": "cubevnc",
   "Cluster": "aip",
   "CPU_Cost": 0.37400000000000005,
   "Mem_Cost": 0,
   "GPU_Cost": 0,
   "App_Cost": 0,
   "StartDate": "2020/11/12",
   "Project": "default"
  },
  {
   "CPU_Hours": 17.347983372253058,
   "Mem_GB_Hours": 9.00486786752289,
   "GPU_Hours": 17.347983372253058,
   "Runtime": 17.347983372253058,
   "App_Hours": 17.347983372253058,
   "JobId": "16410",
   "Queue": "local",
   "User": "hozonauto",
   "App": "Abaqus",
   "JobDescription": "Abaqus",
   "JobName": "cubevnc",
   "Cluster": "aip",
   "CPU_Cost": 3.4695966744506115,
   "Mem_Cost": 0,
   "GPU_Cost": 3.4695966744506115,
   "App_Cost": 0,
   "StartDate": "2020/11/12",
   "Project": "default"
  },
  {
   "CPU_Hours": 0.18416666666666667,
   "Mem_GB_Hours": 0.001252918243408203,
   "GPU_Hours": 0,
   "Runtime": 0.010833333333333334,
   "App_Hours": 0.18416666666666667,
   "JobId": "16230",
   "Queue": "q_x86_vio_share_plus",
   "User": "hozonauto",
   "App": "StarCCM",
   "JobDescription": "StarCCM",
   "JobName": "cubevnc",
   "Cluster": "aip",
   "CPU_Cost": 0.036833333333333336,
   "Mem_Cost": 0,
   "GPU_Cost": 0,
   "App_Cost": 0,
   "StartDate": "2020/11/11",
   "Project": "default"
  },
  {
   "CPU_Hours": 214.2095261514667,
   "Mem_GB_Hours": 0.03130722806325607,
   "GPU_Hours": 0,
   "Runtime": 4.4626984614888885,
   "App_Hours": 214.2095261514667,
   "JobId": "16544",
   "Queue": "q_x86_cn_sim",
   "User": "hozonauto",
   "App": "LS-DYNA",
   "JobDescription": "Batch-LS-DYNA",
   "JobName": "/home/export/online3/amd_share/shangruan/bin/dynayaml /home/export/base/nsccwuxi_hozonauto/hozonauto/WORK/ep30-frb/EP30_Front-Impact_1104.k single",
   "Cluster": "aip",
   "CPU_Cost": 42.84190523029333,
   "Mem_Cost": 0,
   "GPU_Cost": 0,
   "App_Cost": 0,
   "StartDate": "2020/11/13",
   "Project": "default"
  },
  {
   "CPU_Hours": 110.6747738858975,
   "Mem_GB_Hours": 6.322073861142359,
   "GPU_Hours": 0,
   "Runtime": 6.5102808168175,
   "App_Hours": 110.6747738858975,
   "JobId": "16395",
   "Queue": "q_x86_vio_share_plus",
   "User": "hozonauto",
   "App": "StarCCM",
   "JobDescription": "StarCCM",
   "JobName": "cubevnc",
   "Cluster": "aip",
   "CPU_Cost": 22.134954777179498,
   "Mem_Cost": 0,
   "GPU_Cost": 0,
   "App_Cost": 0,
   "StartDate": "2020/11/12",
   "Project": "default"
  },
  {
   "CPU_Hours": 8.49356916512,
   "Mem_GB_Hours": 0.0026603789799227906,
   "GPU_Hours": 0,
   "Runtime": 0.3538987152133334,
   "App_Hours": 8.49356916512,
   "JobId": "16730",
   "Queue": "q_x86_cn_sim",
   "User": "hozonauto",
   "App": "Abaqus",
   "JobDescription": "Batch-Abaqus",
   "JobName": "/home/export/online3/amd_share/shangruan/bin/abaqus614 /home/export/base/nsccwuxi_hozonauto/hozonauto/WORK/LC07_.inp",
   "Cluster": "aip",
   "CPU_Cost": 1.6987138330240001,
   "Mem_Cost": 0,
   "GPU_Cost": 0,
   "App_Cost": 0,
   "StartDate": "2020/11/14",
   "Project": "default"
  },
  {
   "CPU_Hours": 15.842348126185836,
   "Mem_GB_Hours": 5.451750047669605,
   "GPU_Hours": 15.842348126185836,
   "Runtime": 15.842348126185836,
   "App_Hours": 15.842348126185836,
   "JobId": "16411",
   "Queue": "local",
   "User": "hozonauto",
   "App": "LSPrePost",
   "JobDescription": "LSPrePost",
   "JobName": "cubevnc",
   "Cluster": "aip",
   "CPU_Cost": 3.168469625237167,
   "Mem_Cost": 0,
   "GPU_Cost": 3.168469625237167,
   "App_Cost": 0,
   "StartDate": "2020/11/12",
   "Project": "default"
  },
  {
   "CPU_Hours": 3.0433333333333334,
   "Mem_GB_Hours": 0.32693358951144746,
   "GPU_Hours": 0,
   "Runtime": 0.09222222222222222,
   "App_Hours": 3.0433333333333334,
   "JobId": "16388",
   "Queue": "q_x86_vio_share_plus",
   "User": "hozonauto",
   "App": "StarCCM",
   "JobDescription": "StarCCM",
   "JobName": "cubevnc",
   "Cluster": "aip",
   "CPU_Cost": 0.6086666666666667,
   "Mem_Cost": 0,
   "GPU_Cost": 0,
   "App_Cost": 0,
   "StartDate": "2020/11/12",
   "Project": "default"
  },
  {
   "CPU_Hours": 206.15809618454503,
   "Mem_GB_Hours": 14.089292455973613,
   "GPU_Hours": 0,
   "Runtime": 12.126946834385002,
   "App_Hours": 206.15809618454503,
   "JobId": "16252",
   "Queue": "q_x86_vio_share_plus",
   "User": "hozonauto",
   "App": "StarCCM",
   "JobDescription": "StarCCM",
   "JobName": "cubevnc",
   "Cluster": "aip",
   "CPU_Cost": 41.231619236909,
   "Mem_Cost": 0,
   "GPU_Cost": 0,
   "App_Cost": 0,
   "StartDate": "2020/11/11",
   "Project": "default"
  },
  {
   "CPU_Hours": 288.64172438878336,
   "Mem_GB_Hours": 43.294059730613625,
   "GPU_Hours": 0,
   "Runtime": 8.746718920872222,
   "App_Hours": 288.64172438878336,
   "JobId": "16128",
   "Queue": "q_x86_vio_share_plus",
   "User": "hozonauto",
   "App": "StarCCM",
   "JobDescription": "StarCCM",
   "JobName": "cubevnc",
   "Cluster": "aip",
   "CPU_Cost": 57.72834487775667,
   "Mem_Cost": 0,
   "GPU_Cost": 0,
   "App_Cost": 0,
   "StartDate": "2020/11/11",
   "Project": "default"
  },
  {
   "CPU_Hours": 1.77757312035,
   "Mem_GB_Hours": 0.1457161927847556,
   "GPU_Hours": 0,
   "Runtime": 0.19750812448333335,
   "App_Hours": 1.77757312035,
   "JobId": "16241",
   "Queue": "q_x86_vio_share_plus",
   "User": "hozonauto",
   "App": "StarCCM",
   "JobDescription": "StarCCM",
   "JobName": "cubevnc",
   "Cluster": "aip",
   "CPU_Cost": 0.35551462407000006,
   "Mem_Cost": 0,
   "GPU_Cost": 0,
   "App_Cost": 0,
   "StartDate": "2020/11/11",
   "Project": "default"
  },
  {
   "CPU_Hours": 444.50047697262,
   "Mem_GB_Hours": 0.0422155616627496,
   "GPU_Hours": 0,
   "Runtime": 6.173617735730832,
   "App_Hours": 444.50047697262,
   "JobId": "18776",
   "Queue": "q_x86_cn_sim",
   "User": "hozonauto",
   "App": "StarCCM",
   "JobDescription": "Batch-StarCCM",
   "JobName": "/home/export/online3/amd_share/shangruan/bin/starccmyaml /home/export/base/nsccwuxi_hozonauto/hozonauto/WORK/hfj/20201129_Copy.sim",
   "Cluster": "aip",
   "CPU_Cost": 88.90009539452399,
   "Mem_Cost": 0,
   "GPU_Cost": 0,
   "App_Cost": 0,
   "StartDate": "2020/11/29",
   "Project": "default"
  },
  {
   "CPU_Hours": 0.21250000000000002,
   "Mem_GB_Hours": 0.0014367580413818361,
   "GPU_Hours": 0,
   "Runtime": 0.0125,
   "App_Hours": 0.21250000000000002,
   "JobId": "16394",
   "Queue": "q_x86_vio_share_plus",
   "User": "hozonauto",
   "App": "StarCCM",
   "JobDescription": "StarCCM",
   "JobName": "cubevnc",
   "Cluster": "aip",
   "CPU_Cost": 0.04250000000000001,
   "Mem_Cost": 0,
   "GPU_Cost": 0,
   "App_Cost": 0,
   "StartDate": "2020/11/12",
   "Project": "default"
  },
  {
   "CPU_Hours": 0.0038888888888888888,
   "Mem_GB_Hours": 0.00005497826470269097,
   "GPU_Hours": 0,
   "Runtime": 0.0038888888888888888,
   "App_Hours": 0.0038888888888888888,
   "JobId": "16414",
   "Queue": "q_x86_expr",
   "User": "hozonauto",
   "App": "LS-DYNA",
   "JobDescription": "Batch-LS-DYNA",
   "JobName": "/home/export/online3/amd_share/shangruan/bin/dynayaml /home/export/base/nsccwuxi_hozonauto/hozonauto/WORK/ep30-frb/062_EP30_shaft.k single",
   "Cluster": "aip",
   "CPU_Cost": 0.0007777777777777778,
   "Mem_Cost": 0,
   "GPU_Cost": 0,
   "App_Cost": 0,
   "StartDate": "2020/11/12",
   "Project": "default"
  },
  {
   "CPU_Hours": 1298.230688520116,
   "Mem_GB_Hours": 67.97323654413191,
   "GPU_Hours": 0,
   "Runtime": 76.36651108941858,
   "App_Hours": 1298.230688520116,
   "JobId": "16449",
   "Queue": "q_x86_vio_share_plus",
   "User": "hozonauto",
   "App": "StarCCM",
   "JobDescription": "StarCCM",
   "JobName": "cubevnc",
   "Cluster": "aip",
   "CPU_Cost": 259.6461377040231,
   "Mem_Cost": 0,
   "GPU_Cost": 0,
   "App_Cost": 0,
   "StartDate": "2020/11/13",
   "Project": "default"
  },
  {
   "CPU_Hours": 2.271508107683611,
   "Mem_GB_Hours": 0.01555378166150817,
   "GPU_Hours": 0,
   "Runtime": 0.1336181239813889,
   "App_Hours": 2.271508107683611,
   "JobId": "16350",
   "Queue": "q_x86_expr_plus",
   "User": "hozonauto",
   "App": "StarCCM",
   "JobDescription": "StarCCM",
   "JobName": "cubevnc",
   "Cluster": "aip",
   "CPU_Cost": 0.4543016215367223,
   "Mem_Cost": 0,
   "GPU_Cost": 0,
   "App_Cost": 0,
   "StartDate": "2020/11/12",
   "Project": "default"
  },
  {
   "CPU_Hours": 206.39892951787834,
   "Mem_GB_Hours": 10.664255467893222,
   "GPU_Hours": 0,
   "Runtime": 12.141113501051668,
   "App_Hours": 206.39892951787834,
   "JobId": "16250",
   "Queue": "q_x86_expr_plus",
   "User": "hozonauto",
   "App": "StarCCM",
   "JobDescription": "StarCCM",
   "JobName": "cubevnc",
   "Cluster": "aip",
   "CPU_Cost": 41.279785903575664,
   "Mem_Cost": 0,
   "GPU_Cost": 0,
   "App_Cost": 0,
   "StartDate": "2020/11/11",
   "Project": "default"
  },
  {
   "CPU_Hours": 449.09982729716,
   "Mem_GB_Hours": 0.042875512094098144,
   "GPU_Hours": 0,
   "Runtime": 6.237497601349444,
   "App_Hours": 449.09982729716,
   "JobId": "18775",
   "Queue": "q_x86_cn_sim",
   "User": "hozonauto",
   "App": "StarCCM",
   "JobDescription": "Batch-StarCCM",
   "JobName": "/home/export/online3/amd_share/shangruan/bin/starccmyaml /home/export/base/nsccwuxi_hozonauto/hozonauto/WORK/hfj/20201129_Copy.sim",
   "Cluster": "aip",
   "CPU_Cost": 89.81996545943201,
   "Mem_Cost": 0,
   "GPU_Cost": 0,
   "App_Cost": 0,
   "StartDate": "2020/11/29",
   "Project": "default"
  },
  {
   "CPU_Hours": 0.9892065004688888,
   "Mem_GB_Hours": 0.007550739390738965,
   "GPU_Hours": 0,
   "Runtime": 0.9892065004688888,
   "App_Hours": 0.9892065004688888,
   "JobId": "16418",
   "Queue": "q_x86_expr",
   "User": "hozonauto",
   "App": "LS-DYNA",
   "JobDescription": "Batch-LS-DYNA",
   "JobName": "/home/export/online3/amd_share/shangruan/bin/dynayaml /home/export/base/nsccwuxi_hozonauto/hozonauto/WORK/EP30-ODB/EP30_ODB_1104.k single",
   "Cluster": "aip",
   "CPU_Cost": 0.19784130009377776,
   "Mem_Cost": 0,
   "GPU_Cost": 0,
   "App_Cost": 0,
   "StartDate": "2020/11/12",
   "Project": "default"
  },
  {
   "CPU_Hours": 122.75478947297167,
   "Mem_GB_Hours": 6.916477196584732,
   "GPU_Hours": 0,
   "Runtime": 7.220869968998333,
   "App_Hours": 122.75478947297167,
   "JobId": "16392",
   "Queue": "q_x86_vio_share_plus",
   "User": "hozonauto",
   "App": "StarCCM",
   "JobDescription": "StarCCM",
   "JobName": "cubevnc",
   "Cluster": "aip",
   "CPU_Cost": 24.550957894594333,
   "Mem_Cost": 0,
   "GPU_Cost": 0,
   "App_Cost": 0,
   "StartDate": "2020/11/12",
   "Project": "default"
  },
  {
   "CPU_Hours": 0.5950000000000001,
   "Mem_GB_Hours": 0.004225997924804688,
   "GPU_Hours": 0,
   "Runtime": 0.035,
   "App_Hours": 0.5950000000000001,
   "JobId": "16337",
   "Queue": "q_x86_vio_share_plus",
   "User": "hozonauto",
   "App": "StarCCM",
   "JobDescription": "StarCCM",
   "JobName": "cubevnc",
   "Cluster": "aip",
   "CPU_Cost": 0.11900000000000002,
   "Mem_Cost": 0,
   "GPU_Cost": 0,
   "App_Cost": 0,
   "StartDate": "2020/11/12",
   "Project": "default"
  },
  {
   "CPU_Hours": 3.9862793814116664,
   "Mem_GB_Hours": 1.543090357242758,
   "GPU_Hours": 0,
   "Runtime": 1.9931396907058332,
   "App_Hours": 3.9862793814116664,
   "JobId": "16123",
   "Queue": "q_x86_vio_share_plus",
   "User": "hozonauto",
   "App": "StarCCM",
   "JobDescription": "-ver_1406",
   "JobName": "cubevnc",
   "Cluster": "aip",
   "CPU_Cost": 0.7972558762823332,
   "Mem_Cost": 0,
   "GPU_Cost": 0,
   "App_Cost": 0,
   "StartDate": "2020/11/10",
   "Project": "default"
  },
  {
   "CPU_Hours": 0.06277777777777778,
   "Mem_GB_Hours": 0.021777670118543837,
   "GPU_Hours": 0,
   "Runtime": 0.03138888888888889,
   "App_Hours": 0.06277777777777778,
   "JobId": "16122",
   "Queue": "q_x86_vio_share_plus",
   "User": "hozonauto",
   "App": "StarCCM",
   "JobDescription": "StarCCM",
   "JobName": "cubevnc",
   "Cluster": "aip",
   "CPU_Cost": 0.012555555555555556,
   "Mem_Cost": 0,
   "GPU_Cost": 0,
   "App_Cost": 0,
   "StartDate": "2020/11/10",
   "Project": "default"
  }
 ]
}