{"GPU_Hours":703.16111111111,"App_Hours":{"LSPrePost":{"Hours":352.69583333333,"UnitPrice":0,"Cost":0},"Abaqus2017":{"Hours":0.25,"UnitPrice":5,"Cost":1.25},"LS-DYNA":{"Hours":3582.2672222222,"UnitPrice":5,"Cost":17911.336111111},"Abaqus":{"Hours":350.58805555556,"UnitPrice":5,"Cost":1752.9402777778},"Abaqus\u63d0\u4ea4inp":{"Hours":267.77611111111,"UnitPrice":0,"Cost":0},"Abaqus614\u63d0\u4ea4inp\u591a\u8282\u70b9":{"Hours":99.375555555556,"UnitPrice":0,"Cost":0}},"Month":"2020-08","CPU_Hours":4652.9527777778,"Users":{"simforge3":21643.663223912},"Mem_GB_Hours":276.51557245784,"App_Cost":19665.526388889,"Mem_Cost":27.651557245784,"GPU_Cost":351.58055555556,"Total_Cost":21643.663223912,"CPU_Cost":1598.9047222222,"Details":[{"EndDate":"2020\/08\/01","GPU_Hours":19.753333333333,"App":"LSPrePost","JobName":"cubevnc","JobId":"6329","Queue":"local","Cluster":"aip","CPU_Hours":19.753333333333,"User":"simforge3","Mem_GB_Hours":5.470777537028,"runTime":19.753333333333,"JobDescription":"3e","GPU_Cost":9.8766666666667,"CPU_Cost":9.8766666666667,"Mem_Cost":0.5470777537028,"App_Cost":0},{"EndDate":"2020\/08\/03","GPU_Hours":0,"App":"Abaqus2017","JobName":"Job-214940","JobId":"6319","Queue":"q_x86_share","Cluster":"aip","CPU_Hours":0.046666666666667,"User":"simforge3","Mem_GB_Hours":4.0061738755968e-5,"runTime":0.0019444444444444,"JobDescription":"Job-214940-Model-1","GPU_Cost":0,"CPU_Cost":0.023333333333333,"Mem_Cost":4.0061738755968e-6,"App_Cost":0.23333333333333},{"EndDate":"2020\/08\/03","GPU_Hours":0,"App":"LS-DYNA","JobName":"\/home\/export\/online3\/simforge3\/dd\/main1.k","JobId":"6325","Queue":"q_x86_share","Cluster":"aip","CPU_Hours":0.0011111111111111,"User":"simforge3","Mem_GB_Hours":6.4362419976128e-6,"runTime":0.00055555555555556,"JobDescription":"main1.k","GPU_Cost":0,"CPU_Cost":0.00055555555555556,"Mem_Cost":6.4362419976128e-7,"App_Cost":0.0055555555555556},{"EndDate":"2020\/08\/03","GPU_Hours":0,"App":"LS-DYNA","JobName":"\/home\/export\/online3\/simforge3\/dd\/sale1.k","JobId":"6328","Queue":"q_x86_share","Cluster":"aip","CPU_Hours":0.0011111111111111,"User":"simforge3","Mem_GB_Hours":3.2181209988064e-6,"runTime":0.00027777777777778,"JobDescription":"sale1.k","GPU_Cost":0,"CPU_Cost":0.00055555555555556,"Mem_Cost":3.2181209988064e-7,"App_Cost":0.0055555555555556},{"EndDate":"2020\/08\/03","GPU_Hours":0,"App":"LS-DYNA","JobName":"\/home\/export\/base\/nsccwuxi_amd\/simforge3\/WORK\/dd\/js1311.k","JobId":"6331","Queue":"q_x86_share","Cluster":"aip","CPU_Hours":0.00055555555555556,"User":"simforge3","Mem_GB_Hours":3.2181209988064e-6,"runTime":0.00027777777777778,"JobDescription":"js1311.k","GPU_Cost":0,"CPU_Cost":0.00027777777777778,"Mem_Cost":3.2181209988064e-7,"App_Cost":0.0027777777777778},{"EndDate":"2020\/08\/03","GPU_Hours":0,"App":"Abaqus2017","JobName":"Job-182214","JobId":"6354","Queue":"q_x86_share","Cluster":"aip","CPU_Hours":0.0033333333333333,"User":"simforge3","Mem_GB_Hours":2.5285085042318e-5,"runTime":0.0016666666666667,"JobDescription":"Job-182214-Job-3","GPU_Cost":0,"CPU_Cost":0.0016666666666667,"Mem_Cost":2.5285085042318e-6,"App_Cost":0.016666666666667},{"EndDate":"2020\/08\/04","GPU_Hours":73.315555555556,"App":"Abaqus","JobName":"cubevnc","JobId":"6353","Queue":"local","Cluster":"aip","CPU_Hours":73.315555555556,"User":"simforge3","Mem_GB_Hours":48.976974826389,"runTime":73.315555555556,"JobDescription":"4q","GPU_Cost":36.657777777778,"CPU_Cost":36.657777777778,"Mem_Cost":4.8976974826389,"App_Cost":366.57777777778},{"EndDate":"2020\/08\/04","GPU_Hours":0.050277777777778,"App":"Abaqus","JobName":"cubevnc","JobId":"6601","Queue":"local","Cluster":"aip","CPU_Hours":0.050277777777778,"User":"simforge3","Mem_GB_Hours":0.019741216235691,"runTime":0.050277777777778,"JobDescription":"aba-w","GPU_Cost":0.025138888888889,"CPU_Cost":0.025138888888889,"Mem_Cost":0.0019741216235691,"App_Cost":0.25138888888889},{"EndDate":"2020\/08\/04","GPU_Hours":0.0069444444444444,"App":"LSPrePost","JobName":"cubevnc","JobId":"6602","Queue":"local","Cluster":"aip","CPU_Hours":0.0069444444444444,"User":"simforge3","Mem_GB_Hours":0.0012800163692898,"runTime":0.0069444444444444,"JobDescription":"aaa","GPU_Cost":0.0034722222222222,"CPU_Cost":0.0034722222222222,"Mem_Cost":0.00012800163692898,"App_Cost":0},{"EndDate":"2020\/08\/04","GPU_Hours":0,"App":"Abaqus2017","JobName":"Job-201907","JobId":"6607","Queue":"q_x86_expr","Cluster":"aip","CPU_Hours":0.2,"User":"simforge3","Mem_GB_Hours":0.00012420018513997,"runTime":0.0083333333333333,"JobDescription":"Job-201907-Job-182214","GPU_Cost":0,"CPU_Cost":0.1,"Mem_Cost":1.2420018513997e-5,"App_Cost":1},{"EndDate":"2020\/08\/04","GPU_Hours":0.098888888888889,"App":"Abaqus","JobName":"cubevnc","JobId":"6605","Queue":"local","Cluster":"aip","CPU_Hours":0.098888888888889,"User":"simforge3","Mem_GB_Hours":0.040089111328125,"runTime":0.098888888888889,"JobDescription":"qq","GPU_Cost":0.049444444444444,"CPU_Cost":0.049444444444444,"Mem_Cost":0.0040089111328125,"App_Cost":0.49444444444444},{"EndDate":"2020\/08\/04","GPU_Hours":0.11055555555556,"App":"Abaqus","JobName":"cubevnc","JobId":"6604","Queue":"local","Cluster":"aip","CPU_Hours":0.11055555555556,"User":"simforge3","Mem_GB_Hours":0.040654504564073,"runTime":0.11055555555556,"JobDescription":"4q","GPU_Cost":0.055277777777778,"CPU_Cost":0.055277777777778,"Mem_Cost":0.0040654504564073,"App_Cost":0.55277777777778},{"EndDate":"2020\/08\/04","GPU_Hours":0,"App":"LS-DYNA","JobName":"\/home\/export\/base\/nsccwuxi_amd\/simforge3\/WORK\/dyna\/Caravan-V03c-2400k-main-shell16-10ms.k","JobId":"6609","Queue":"q_x86_expr","Cluster":"aip","CPU_Hours":0.031666666666667,"User":"simforge3","Mem_GB_Hours":0.00018331209818522,"runTime":0.015833333333333,"JobDescription":"Caravan-V03c-2400k-main-shell16-10ms.k","GPU_Cost":0,"CPU_Cost":0.015833333333333,"Mem_Cost":1.8331209818522e-5,"App_Cost":0.15833333333333},{"EndDate":"2020\/08\/04","GPU_Hours":0,"App":"LSPrePost","JobName":"cubevnc","JobId":"6608","Queue":"local","Cluster":"aip","CPU_Hours":0.12277777777778,"User":"simforge3","Mem_GB_Hours":0.14913942337036,"runTime":0.12277777777778,"JobDescription":"dynatest01","GPU_Cost":0,"CPU_Cost":0.061388888888889,"Mem_Cost":0.014913942337036,"App_Cost":0},{"EndDate":"2020\/08\/04","GPU_Hours":0,"App":"LS-DYNA","JobName":"\/home\/export\/base\/nsccwuxi_amd\/simforge3\/WORK\/dd\/yuan4.k","JobId":"6614","Queue":"q_x86_expr","Cluster":"aip","CPU_Hours":16.031111111111,"User":"simforge3","Mem_GB_Hours":0.011596296098497,"runTime":1.0019444444444,"JobDescription":"yuan4.k","GPU_Cost":0,"CPU_Cost":8.0155555555556,"Mem_Cost":0.0011596296098497,"App_Cost":80.155555555556},{"EndDate":"2020\/08\/04","GPU_Hours":0,"App":"LS-DYNA","JobName":"\/home\/export\/base\/nsccwuxi_amd\/simforge3\/WORK\/abaqsu\/yuan4.k","JobId":"6622","Queue":"q_x86_expr","Cluster":"aip","CPU_Hours":0.99111111111111,"User":"simforge3","Mem_GB_Hours":0.00087737931145562,"runTime":0.061944444444444,"JobDescription":"yuan4.k","GPU_Cost":0,"CPU_Cost":0.49555555555556,"Mem_Cost":8.7737931145562e-5,"App_Cost":4.9555555555556},{"EndDate":"2020\/08\/09","GPU_Hours":0,"App":"Abaqus\u63d0\u4ea4inp","JobName":"","JobId":"7462","Queue":"q_x86_vio_share","Cluster":"aip","CPU_Hours":0.034444444444444,"User":"simforge3","Mem_GB_Hours":0.0001778433057997,"runTime":0.017222222222222,"JobDescription":"iii","GPU_Cost":0,"CPU_Cost":0.010333333333333,"Mem_Cost":1.778433057997e-5,"App_Cost":0},{"EndDate":"2020\/08\/09","GPU_Hours":0,"App":"Abaqus\u63d0\u4ea4inp","JobName":"","JobId":"7461","Queue":"q_x86_expr","Cluster":"aip","CPU_Hours":2.9822222222222,"User":"simforge3","Mem_GB_Hours":0.015397788153754,"runTime":1.4911111111111,"JobDescription":"inptt","GPU_Cost":0,"CPU_Cost":1.4911111111111,"Mem_Cost":0.0015397788153754,"App_Cost":0},{"EndDate":"2020\/08\/09","GPU_Hours":119.92138888889,"App":"LSPrePost","JobName":"cubevnc","JobId":"6611","Queue":"local","Cluster":"aip","CPU_Hours":119.92138888889,"User":"simforge3","Mem_GB_Hours":41.846500582165,"runTime":119.92138888889,"JobDescription":"yuan","GPU_Cost":59.960694444444,"CPU_Cost":59.960694444444,"Mem_Cost":4.1846500582165,"App_Cost":0},{"EndDate":"2020\/08\/09","GPU_Hours":0,"App":"LS-DYNA","JobName":"\/home\/export\/base\/nsccwuxi_amd\/simforge3\/WORK\/dd\/yuan4.k","JobId":"6612","Queue":"q_x86_expr","Cluster":"aip","CPU_Hours":239.81666666667,"User":"simforge3","Mem_GB_Hours":0,"runTime":119.90833333333,"JobDescription":"yuan4.k","GPU_Cost":0,"CPU_Cost":119.90833333333,"Mem_Cost":0,"App_Cost":1199.0833333333},{"EndDate":"2020\/08\/09","GPU_Hours":118.6975,"App":"LSPrePost","JobName":"cubevnc","JobId":"6621","Queue":"local","Cluster":"aip","CPU_Hours":118.6975,"User":"simforge3","Mem_GB_Hours":47.692900371552,"runTime":118.6975,"JobDescription":"yuan1","GPU_Cost":59.34875,"CPU_Cost":59.34875,"Mem_Cost":4.7692900371552,"App_Cost":0},{"EndDate":"2020\/08\/09","GPU_Hours":0,"App":"LS-DYNA","JobName":"\/home\/export\/base\/nsccwuxi_amd\/simforge3\/WORK\/abaqsu\/yuan4.k","JobId":"6624","Queue":"q_x86_vio_share","Cluster":"aip","CPU_Hours":3320.7377777778,"User":"simforge3","Mem_GB_Hours":0,"runTime":118.59777777778,"JobDescription":"yuan4.k","GPU_Cost":0,"CPU_Cost":996.22133333333,"Mem_Cost":0,"App_Cost":16603.688888889},{"EndDate":"2020\/08\/09","GPU_Hours":0,"App":"Abaqus\u63d0\u4ea4inp","JobName":"","JobId":"7471","Queue":"q_x86_vio_share","Cluster":"aip","CPU_Hours":0.012777777777778,"User":"simforge3","Mem_GB_Hours":6.5974129570855e-5,"runTime":0.0063888888888889,"JobDescription":"qq2","GPU_Cost":0,"CPU_Cost":0.0038333333333333,"Mem_Cost":6.5974129570855e-6,"App_Cost":0},{"EndDate":"2020\/08\/09","GPU_Hours":0.30694444444444,"App":"Abaqus","JobName":"cubevnc","JobId":"7470","Queue":"local","Cluster":"aip","CPU_Hours":0.30694444444444,"User":"simforge3","Mem_GB_Hours":0.12139424218072,"runTime":0.30694444444444,"JobDescription":"3ee","GPU_Cost":0.15347222222222,"CPU_Cost":0.15347222222222,"Mem_Cost":0.012139424218072,"App_Cost":1.5347222222222},{"EndDate":"2020\/08\/10","GPU_Hours":0,"App":"Abaqus\u63d0\u4ea4inp","JobName":"","JobId":"7473","Queue":"q_x86_vio_share","Cluster":"aip","CPU_Hours":264.74666666667,"User":"simforge3","Mem_GB_Hours":0.17086725870768,"runTime":16.546666666667,"JobDescription":"tank1","GPU_Cost":0,"CPU_Cost":79.424,"Mem_Cost":0.017086725870768,"App_Cost":0},{"EndDate":"2020\/08\/10","GPU_Hours":23.724722222222,"App":"Abaqus","JobName":"cubevnc","JobId":"7474","Queue":"local","Cluster":"aip","CPU_Hours":23.724722222222,"User":"simforge3","Mem_GB_Hours":17.033500554827,"runTime":23.724722222222,"JobDescription":"tanj","GPU_Cost":11.862361111111,"CPU_Cost":11.862361111111,"Mem_Cost":1.7033500554827,"App_Cost":118.62361111111},{"EndDate":"2020\/08\/12","GPU_Hours":0,"App":"LS-DYNA","JobName":"\/home\/export\/online3\/simforge3\/jobdata\/default\/qq2\/glass.k","JobId":"7783","Queue":"q_x86_expr","Cluster":"aip","CPU_Hours":2.9555555555556,"User":"simforge3","Mem_GB_Hours":0.0020061651865641,"runTime":0.18472222222222,"JobDescription":"glass.k","GPU_Cost":0,"CPU_Cost":1.4777777777778,"Mem_Cost":0.00020061651865641,"App_Cost":14.777777777778},{"EndDate":"2020\/08\/12","GPU_Hours":0.22694444444444,"App":"LSPrePost","JobName":"cubevnc","JobId":"7782","Queue":"local","Cluster":"aip","CPU_Hours":0.22694444444444,"User":"simforge3","Mem_GB_Hours":0.10020845943027,"runTime":0.22694444444444,"JobDescription":"glass","GPU_Cost":0.11347222222222,"CPU_Cost":0.11347222222222,"Mem_Cost":0.010020845943027,"App_Cost":0},{"EndDate":"2020\/08\/12","GPU_Hours":0,"App":"LS-DYNA","JobName":"\/home\/export\/online3\/simforge3\/jobdata\/default\/qq2\/d3plot","JobId":"7786","Queue":"q_x86_expr","Cluster":"aip","CPU_Hours":0.26,"User":"simforge3","Mem_GB_Hours":0.00011761347452799,"runTime":0.010833333333333,"JobDescription":"d3plot","GPU_Cost":0,"CPU_Cost":0.13,"Mem_Cost":1.1761347452799e-5,"App_Cost":1.3},{"EndDate":"2020\/08\/13","GPU_Hours":0.5925,"App":"LSPrePost","JobName":"cubevnc","JobId":"7784","Queue":"local","Cluster":"aip","CPU_Hours":0.5925,"User":"simforge3","Mem_GB_Hours":0.81068919181824,"runTime":0.5925,"JobDescription":"ccc","GPU_Cost":0.29625,"CPU_Cost":0.29625,"Mem_Cost":0.081068919181824,"App_Cost":0},{"EndDate":"2020\/08\/13","GPU_Hours":0.022222222222222,"App":"LSPrePost","JobName":"cubevnc","JobId":"7785","Queue":"local","Cluster":"aip","CPU_Hours":0.022222222222222,"User":"simforge3","Mem_GB_Hours":0.0040085686577691,"runTime":0.022222222222222,"JobDescription":"ccc1","GPU_Cost":0.011111111111111,"CPU_Cost":0.011111111111111,"Mem_Cost":0.00040085686577691,"App_Cost":0},{"EndDate":"2020\/08\/13","GPU_Hours":0,"App":"LS-DYNA","JobName":"\/home\/export\/online3\/simforge3\/jobdata\/default\/qqqqq\/glass-elastic1.k","JobId":"7791","Queue":"q_x86_expr","Cluster":"aip","CPU_Hours":0.26666666666667,"User":"simforge3","Mem_GB_Hours":0.00012067159016927,"runTime":0.011111111111111,"JobDescription":"glass-elastic1.k","GPU_Cost":0,"CPU_Cost":0.13333333333333,"Mem_Cost":1.2067159016927e-5,"App_Cost":1.3333333333333},{"EndDate":"2020\/08\/13","GPU_Hours":0,"App":"LS-DYNA","JobName":"\/home\/export\/online3\/simforge3\/jobdata\/default\/qqqqq\/glass-elastic1.k","JobId":"7792","Queue":"q_x86_expr","Cluster":"aip","CPU_Hours":0.070555555555556,"User":"simforge3","Mem_GB_Hours":0.00038299772474501,"runTime":0.035277777777778,"JobDescription":"glass-elastic1.k","GPU_Cost":0,"CPU_Cost":0.035277777777778,"Mem_Cost":3.8299772474501e-5,"App_Cost":0.35277777777778},{"EndDate":"2020\/08\/13","GPU_Hours":7.1530555555556,"App":"LSPrePost","JobName":"cubevnc","JobId":"7788","Queue":"local","Cluster":"aip","CPU_Hours":7.1530555555556,"User":"simforge3","Mem_GB_Hours":4.7250540129344,"runTime":7.1530555555556,"JobDescription":"era","GPU_Cost":3.5765277777778,"CPU_Cost":3.5765277777778,"Mem_Cost":0.47250540129344,"App_Cost":0},{"EndDate":"2020\/08\/13","GPU_Hours":58.176944444444,"App":"Abaqus","JobName":"cubevnc","JobId":"7562","Queue":"local","Cluster":"aip","CPU_Hours":58.176944444444,"User":"simforge3","Mem_GB_Hours":46.402140743468,"runTime":58.176944444444,"JobDescription":"aba1","GPU_Cost":29.088472222222,"CPU_Cost":29.088472222222,"Mem_Cost":4.6402140743468,"App_Cost":290.88472222222},{"EndDate":"2020\/08\/13","GPU_Hours":12.657777777778,"App":"LSPrePost","JobName":"cubevnc","JobId":"7790","Queue":"local","Cluster":"aip","CPU_Hours":12.657777777778,"User":"simforge3","Mem_GB_Hours":2.3353325737847,"runTime":12.657777777778,"JobDescription":"tanxing","GPU_Cost":6.3288888888889,"CPU_Cost":6.3288888888889,"Mem_Cost":0.23353325737847,"App_Cost":0},{"EndDate":"2020\/08\/13","GPU_Hours":0.044166666666667,"App":"LSPrePost","JobName":"cubevnc","JobId":"7793","Queue":"local","Cluster":"aip","CPU_Hours":0.044166666666667,"User":"simforge3","Mem_GB_Hours":0.020812638600667,"runTime":0.044166666666667,"JobDescription":"line","GPU_Cost":0.022083333333333,"CPU_Cost":0.022083333333333,"Mem_Cost":0.0020812638600667,"App_Cost":0},{"EndDate":"2020\/08\/13","GPU_Hours":0,"App":"LS-DYNA","JobName":"\/home\/export\/online3\/simforge3\/jobdata\/default\/3e\/glass-elastic2.k","JobId":"7830","Queue":"q_x86_expr","Cluster":"aip","CPU_Hours":0.12666666666667,"User":"simforge3","Mem_GB_Hours":5.7319005330404e-5,"runTime":0.0052777777777778,"JobDescription":"glass-elastic2.k","GPU_Cost":0,"CPU_Cost":0.063333333333333,"Mem_Cost":5.7319005330404e-6,"App_Cost":0.63333333333333},{"EndDate":"2020\/08\/13","GPU_Hours":0.16722222222222,"App":"LSPrePost","JobName":"cubevnc","JobId":"7801","Queue":"local","Cluster":"aip","CPU_Hours":0.16722222222222,"User":"simforge3","Mem_GB_Hours":0.06305790371365,"runTime":0.16722222222222,"JobDescription":"wwww","GPU_Cost":0.083611111111111,"CPU_Cost":0.083611111111111,"Mem_Cost":0.006305790371365,"App_Cost":0},{"EndDate":"2020\/08\/13","GPU_Hours":12.918888888889,"App":"LSPrePost","JobName":"cubevnc","JobId":"7789","Queue":"local","Cluster":"aip","CPU_Hours":12.918888888889,"User":"simforge3","Mem_GB_Hours":2.3353588358561,"runTime":12.918888888889,"JobDescription":"dy","GPU_Cost":6.4594444444444,"CPU_Cost":6.4594444444444,"Mem_Cost":0.23353588358561,"App_Cost":0},{"EndDate":"2020\/08\/13","GPU_Hours":0.0088888888888889,"App":"Abaqus","JobName":"cubevnc","JobId":"7802","Queue":"local","Cluster":"aip","CPU_Hours":0.0088888888888889,"User":"simforge3","Mem_GB_Hours":0.001322258843316,"runTime":0.0088888888888889,"JobDescription":"111223","GPU_Cost":0.0044444444444444,"CPU_Cost":0.0044444444444444,"Mem_Cost":0.0001322258843316,"App_Cost":0.044444444444444},{"EndDate":"2020\/08\/13","GPU_Hours":0,"App":"LS-DYNA","JobName":"\/home\/export\/base\/nsccwuxi_amd\/simforge3\/WORK\/jobdata\/default\/3e\/glass-elastic2.k","JobId":"7831","Queue":"q_x86_expr","Cluster":"aip","CPU_Hours":0.076666666666667,"User":"simforge3","Mem_GB_Hours":0.00041631698608398,"runTime":0.038333333333333,"JobDescription":"glass-elastic2.k","GPU_Cost":0,"CPU_Cost":0.038333333333333,"Mem_Cost":4.1631698608398e-5,"App_Cost":0.38333333333333},{"EndDate":"2020\/08\/13","GPU_Hours":0.061666666666667,"App":"LSPrePost","JobName":"cubevnc","JobId":"7826","Queue":"local","Cluster":"aip","CPU_Hours":0.061666666666667,"User":"simforge3","Mem_GB_Hours":0.028337440490723,"runTime":0.061666666666667,"JobDescription":"ee","GPU_Cost":0.030833333333333,"CPU_Cost":0.030833333333333,"Mem_Cost":0.0028337440490723,"App_Cost":0},{"EndDate":"2020\/08\/15","GPU_Hours":0,"App":"Abaqus614\u63d0\u4ea4inp\u591a\u8282\u70b9","JobName":"","JobId":"7985","Queue":"q_x86_expr","Cluster":"aip","CPU_Hours":23.94,"User":"simforge3","Mem_GB_Hours":0.010802850723267,"runTime":0.9975,"JobDescription":"wwwaaa","GPU_Cost":0,"CPU_Cost":11.97,"Mem_Cost":0.0010802850723267,"App_Cost":0},{"EndDate":"2020\/08\/16","GPU_Hours":59.616944444444,"App":"LSPrePost","JobName":"cubevnc","JobId":"7832","Queue":"local","Cluster":"aip","CPU_Hours":59.616944444444,"User":"simforge3","Mem_GB_Hours":32.399247639974,"runTime":59.616944444444,"JobDescription":"wwwcc","GPU_Cost":29.808472222222,"CPU_Cost":29.808472222222,"Mem_Cost":3.2399247639974,"App_Cost":0},{"EndDate":"2020\/08\/16","GPU_Hours":9.8219444444444,"App":"Abaqus","JobName":"cubevnc","JobId":"7983","Queue":"local","Cluster":"aip","CPU_Hours":9.8219444444444,"User":"simforge3","Mem_GB_Hours":4.3164715184106,"runTime":9.8219444444444,"JobDescription":"wwwat","GPU_Cost":4.9109722222222,"CPU_Cost":4.9109722222222,"Mem_Cost":0.43164715184106,"App_Cost":49.109722222222},{"EndDate":"2020\/08\/16","GPU_Hours":0,"App":"Abaqus614\u63d0\u4ea4inp\u591a\u8282\u70b9","JobName":"","JobId":"7998","Queue":"q_x86_vio_share","Cluster":"aip","CPU_Hours":0.13333333333333,"User":"simforge3","Mem_GB_Hours":4.5108795166016e-5,"runTime":0.0041666666666667,"JobDescription":"waterh","GPU_Cost":0,"CPU_Cost":0.04,"Mem_Cost":4.5108795166016e-6,"App_Cost":0},{"EndDate":"2020\/08\/16","GPU_Hours":0,"App":"Abaqus614\u63d0\u4ea4inp\u591a\u8282\u70b9","JobName":"","JobId":"8001","Queue":"q_x86_expr","Cluster":"aip","CPU_Hours":23.8,"User":"simforge3","Mem_GB_Hours":0.010735893249512,"runTime":0.99166666666667,"JobDescription":"qwer","GPU_Cost":0,"CPU_Cost":11.9,"Mem_Cost":0.0010735893249512,"App_Cost":0},{"EndDate":"2020\/08\/16","GPU_Hours":0,"App":"Abaqus614\u63d0\u4ea4inp\u591a\u8282\u70b9","JobName":"","JobId":"8011","Queue":"q_x86_vio_share","Cluster":"aip","CPU_Hours":0.22,"User":"simforge3","Mem_GB_Hours":9.9204381306966e-5,"runTime":0.0091666666666667,"JobDescription":"qqee","GPU_Cost":0,"CPU_Cost":0.066,"Mem_Cost":9.9204381306966e-6,"App_Cost":0},{"EndDate":"2020\/08\/16","GPU_Hours":0,"App":"Abaqus614\u63d0\u4ea4inp\u591a\u8282\u70b9","JobName":"","JobId":"8012","Queue":"q_x86_vio_share","Cluster":"aip","CPU_Hours":22.346666666667,"User":"simforge3","Mem_GB_Hours":0.01007320827908,"runTime":0.93111111111111,"JobDescription":"ewqrty","GPU_Cost":0,"CPU_Cost":6.704,"Mem_Cost":0.001007320827908,"App_Cost":0},{"EndDate":"2020\/08\/16","GPU_Hours":7.4591666666667,"App":"Abaqus","JobName":"cubevnc","JobId":"7997","Queue":"local","Cluster":"aip","CPU_Hours":7.4591666666667,"User":"simforge3","Mem_GB_Hours":3.6698858706156,"runTime":7.4591666666667,"JobDescription":"waterhuan","GPU_Cost":3.7295833333333,"CPU_Cost":3.7295833333333,"Mem_Cost":0.36698858706156,"App_Cost":37.295833333333},{"EndDate":"2020\/08\/16","GPU_Hours":0,"App":"Abaqus614\u63d0\u4ea4inp\u591a\u8282\u70b9","JobName":"","JobId":"8018","Queue":"q_x86_vio_share","Cluster":"aip","CPU_Hours":28.935555555556,"User":"simforge3","Mem_GB_Hours":0.039157441457113,"runTime":3.6169444444444,"JobDescription":"wode123","GPU_Cost":0,"CPU_Cost":8.6806666666667,"Mem_Cost":0.0039157441457113,"App_Cost":0},{"EndDate":"2020\/08\/23","GPU_Hours":177.51416666667,"App":"Abaqus","JobName":"cubevnc","JobId":"7996","Queue":"local","Cluster":"aip","CPU_Hours":177.51416666667,"User":"simforge3","Mem_GB_Hours":17.370580304464,"runTime":177.51416666667,"JobDescription":"www213","GPU_Cost":88.757083333333,"CPU_Cost":88.757083333333,"Mem_Cost":1.7370580304464,"App_Cost":887.57083333333},{"EndDate":"2020\/08\/24","GPU_Hours":0,"App":"LS-DYNA","JobName":"\/home\/export\/base\/nsccwuxi_amd\/simforge3\/WORK\/jobdata\/default\/water\/9.k","JobId":"9360","Queue":"q_x86_vio_share","Cluster":"aip","CPU_Hours":0.10666666666667,"User":"simforge3","Mem_GB_Hours":0.00013084411621094,"runTime":0.0066666666666667,"JobDescription":"9.k","GPU_Cost":0,"CPU_Cost":0.032,"Mem_Cost":1.3084411621094e-5,"App_Cost":0.53333333333333},{"EndDate":"2020\/08\/24","GPU_Hours":0,"App":"LS-DYNA","JobName":"\/home\/export\/base\/nsccwuxi_amd\/simforge3\/WORK\/jobdata\/default\/water\/9.k","JobId":"9361","Queue":"q_x86_vio_share","Cluster":"aip","CPU_Hours":0.011111111111111,"User":"simforge3","Mem_GB_Hours":0.00010897318522135,"runTime":0.0055555555555556,"JobDescription":"9.k","GPU_Cost":0,"CPU_Cost":0.0033333333333333,"Mem_Cost":1.0897318522135e-5,"App_Cost":0.055555555555556},{"EndDate":"2020\/08\/24","GPU_Hours":0.1375,"App":"LSPrePost","JobName":"cubevnc","JobId":"9359","Queue":"local","Cluster":"aip","CPU_Hours":0.1375,"User":"simforge3","Mem_GB_Hours":0.047472286224365,"runTime":0.1375,"JobDescription":"cccww","GPU_Cost":0.06875,"CPU_Cost":0.06875,"Mem_Cost":0.0047472286224365,"App_Cost":0},{"EndDate":"2020\/08\/24","GPU_Hours":0,"App":"LS-DYNA","JobName":"\/home\/export\/online3\/simforge3\/jobdata\/default\/water\/9.k","JobId":"9363","Queue":"q_x86_expr","Cluster":"aip","CPU_Hours":0.0066666666666667,"User":"simforge3","Mem_GB_Hours":5.4518381754557e-6,"runTime":0.00027777777777778,"JobDescription":"9.k","GPU_Cost":0,"CPU_Cost":0.0033333333333333,"Mem_Cost":5.4518381754557e-7,"App_Cost":0.033333333333333},{"EndDate":"2020\/08\/24","GPU_Hours":0,"App":"LS-DYNA","JobName":"\/home\/export\/online3\/simforge3\/jobdata\/default\/water\/9.k","JobId":"9364","Queue":"q_x86_vio_share","Cluster":"aip","CPU_Hours":0.19111111111111,"User":"simforge3","Mem_GB_Hours":0.00023433791266547,"runTime":0.011944444444444,"JobDescription":"9.k","GPU_Cost":0,"CPU_Cost":0.057333333333333,"Mem_Cost":2.3433791266547e-5,"App_Cost":0.95555555555556},{"EndDate":"2020\/08\/24","GPU_Hours":0,"App":"LS-DYNA","JobName":"\/home\/export\/online3\/simforge3\/jobdata\/default\/water\/9.k","JobId":"9365","Queue":"q_x86_expr","Cluster":"aip","CPU_Hours":0.022777777777778,"User":"simforge3","Mem_GB_Hours":0.00022356881035699,"runTime":0.011388888888889,"JobDescription":"9.k","GPU_Cost":0,"CPU_Cost":0.011388888888889,"Mem_Cost":2.2356881035699e-5,"App_Cost":0.11388888888889},{"EndDate":"2020\/08\/24","GPU_Hours":0,"App":"LS-DYNA","JobName":"\/home\/export\/online3\/simforge3\/jobdata\/default\/water\/9.k","JobId":"9366","Queue":"q_x86_expr","Cluster":"aip","CPU_Hours":0.02,"User":"simforge3","Mem_GB_Hours":0.00019599914550781,"runTime":0.01,"JobDescription":"9.k","GPU_Cost":0,"CPU_Cost":0.01,"Mem_Cost":1.9599914550781e-5,"App_Cost":0.1},{"EndDate":"2020\/08\/24","GPU_Hours":0.19916666666667,"App":"LSPrePost","JobName":"cubevnc","JobId":"9362","Queue":"local","Cluster":"aip","CPU_Hours":0.19916666666667,"User":"simforge3","Mem_GB_Hours":0.070721549987793,"runTime":0.19916666666667,"JobDescription":"oiuy","GPU_Cost":0.099583333333333,"CPU_Cost":0.099583333333333,"Mem_Cost":0.0070721549987793,"App_Cost":0},{"EndDate":"2020\/08\/24","GPU_Hours":0,"App":"LS-DYNA","JobName":"\/home\/export\/online3\/simforge3\/jobdata\/default\/water\/9.k","JobId":"9367","Queue":"q_x86_expr","Cluster":"aip","CPU_Hours":0.13111111111111,"User":"simforge3","Mem_GB_Hours":0.00032159593370226,"runTime":0.016388888888889,"JobDescription":"9.k","GPU_Cost":0,"CPU_Cost":0.065555555555556,"Mem_Cost":3.2159593370226e-5,"App_Cost":0.65555555555556},{"EndDate":"2020\/08\/24","GPU_Hours":0,"App":"LS-DYNA","JobName":"\/home\/export\/base\/nsccwuxi_amd\/simforge3\/WORK\/jobdata\/default\/water\/9.k","JobId":"9369","Queue":"q_x86_vio_share","Cluster":"aip","CPU_Hours":0.10222222222222,"User":"simforge3","Mem_GB_Hours":0.00012539227803548,"runTime":0.0063888888888889,"JobDescription":"9.k","GPU_Cost":0,"CPU_Cost":0.030666666666667,"Mem_Cost":1.2539227803548e-5,"App_Cost":0.51111111111111},{"EndDate":"2020\/08\/24","GPU_Hours":0,"App":"LS-DYNA","JobName":"\/home\/export\/base\/nsccwuxi_amd\/simforge3\/WORK\/jobdata\/default\/water\/9.k","JobId":"9370","Queue":"q_x86_vio_share","Cluster":"aip","CPU_Hours":0.18666666666667,"User":"simforge3","Mem_GB_Hours":0.00022893269856771,"runTime":0.011666666666667,"JobDescription":"9.k","GPU_Cost":0,"CPU_Cost":0.056,"Mem_Cost":2.2893269856771e-5,"App_Cost":0.93333333333333},{"EndDate":"2020\/08\/24","GPU_Hours":0.39583333333333,"App":"LSPrePost","JobName":"cubevnc","JobId":"9368","Queue":"local","Cluster":"aip","CPU_Hours":0.39583333333333,"User":"simforge3","Mem_GB_Hours":0.14645338058472,"runTime":0.39583333333333,"JobDescription":"999dd","GPU_Cost":0.19791666666667,"CPU_Cost":0.19791666666667,"Mem_Cost":0.014645338058472,"App_Cost":0},{"EndDate":"2020\/08\/24","GPU_Hours":0,"App":"LS-DYNA","JobName":"\/home\/export\/base\/nsccwuxi_amd\/simforge3\/WORK\/jobdata\/default\/water\/19.k","JobId":"9373","Queue":"q_x86_vio_share","Cluster":"aip","CPU_Hours":0.093333333333333,"User":"simforge3","Mem_GB_Hours":0.00022897720336914,"runTime":0.011666666666667,"JobDescription":"19.k","GPU_Cost":0,"CPU_Cost":0.028,"Mem_Cost":2.2897720336914e-5,"App_Cost":0.46666666666667},{"EndDate":"2020\/08\/24","GPU_Hours":0,"App":"LS-DYNA","JobName":"\/home\/export\/base\/nsccwuxi_amd\/simforge3\/WORK\/jobdata\/default\/water\/19.k","JobId":"9374","Queue":"q_x86_expr","Cluster":"aip","CPU_Hours":0.012222222222222,"User":"simforge3","Mem_GB_Hours":0.00011987050374349,"runTime":0.0061111111111111,"JobDescription":"19.k","GPU_Cost":0,"CPU_Cost":0.0061111111111111,"Mem_Cost":1.1987050374349e-5,"App_Cost":0.061111111111111},{"EndDate":"2020\/08\/24","GPU_Hours":0,"App":"LS-DYNA","JobName":"\/home\/export\/base\/nsccwuxi_amd\/simforge3\/WORK\/jobdata\/default\/water\/19.k","JobId":"9375","Queue":"q_x86_expr","Cluster":"aip","CPU_Hours":0.016111111111111,"User":"simforge3","Mem_GB_Hours":0.00015788820054796,"runTime":0.0080555555555556,"JobDescription":"19.k","GPU_Cost":0,"CPU_Cost":0.0080555555555556,"Mem_Cost":1.5788820054796e-5,"App_Cost":0.080555555555556}],"User":"simforge3"}