{
 "User": "simforge3",
 "Queues": "all",
 "Clusters": [
  "aip"
 ],
 "Month": "2021-01",
 "CPU_Hours": 42.53787718983556,
 "Mem_GB_Hours": 0.028625580329661043,
 "GPU_Hours": 0,
 "App_Cost": 212.6893859491778,
 "CPU_Cost": 21.26893859491778,
 "Mem_Cost": 0,
 "GPU_Cost": 0,
 "Total_Cost": 376.0538021897983,
 "App_Hours": {
  "Abaqus": {
   "Hours": 15.7792169461,
   "Cost": 78.8960847305
  },
  "LS-DYNA": {
   "Hours": 26.758660243735555,
   "Cost": 133.7933012186778
  }
 },
 "Details": [
  {
   "CPU_Hours": 0.09333333333333334,
   "Mem_GB_Hours": 0.00007205327351888022,
   "GPU_Hours": 0,
   "Runtime": 0.005833333333333334,
   "App_Hours": 0.09333333333333334,
   "JobId": "28112",
   "Queue": "q_x86_expr",
   "User": "simforge3",
   "App": "LS-DYNA",
   "JobDescription": "wwww",
   "JobName": "/home/export/online3/amd_share/shangruan/bin/dynayaml /home/export/base/nsccwuxi_amd/simforge3/WORK/wode/11/jxj.k single",
   "Cluster": "aip",
   "CPU_Cost": 0.04666666666666667,
   "Mem_Cost": 0,
   "GPU_Cost": 0,
   "App_Cost": 0.4666666666666667,
   "StartDate": "2021/01/21",
   "Project": "default"
  },
  {
   "CPU_Hours": 4.115680874893333,
   "Mem_GB_Hours": 0.0054768423102828645,
   "GPU_Hours": 0,
   "Runtime": 0.5144601093616666,
   "App_Hours": 4.115680874893333,
   "JobId": "25038",
   "Queue": "q_x86_expr",
   "User": "simforge3",
   "App": "Abaqus",
   "JobDescription": "qq1",
   "JobName": "/home/export/online3/amd_share/shangruan/bin/abaqus614 /home/export/base/nsccwuxi_amd/simforge3/WORK/wode/Job-1.inp",
   "Cluster": "aip",
   "CPU_Cost": 2.0578404374466666,
   "Mem_Cost": 0,
   "GPU_Cost": 0,
   "App_Cost": 20.578404374466665,
   "StartDate": "2021/01/04",
   "Project": "default"
  },
  {
   "CPU_Hours": 0,
   "Mem_GB_Hours": 0,
   "GPU_Hours": 0,
   "Runtime": 0,
   "App_Hours": 0,
   "JobId": "28101",
   "Queue": "q_x86_cn_sim",
   "User": "simforge3",
   "App": "LS-DYNA",
   "JobDescription": "uu",
   "JobName": "/home/export/online3/amd_share/shangruan/bin/dynayaml /home/export/base/nsccwuxi_amd/simforge3/WORK/wode/11/jjxxx.k double",
   "Cluster": "aip",
   "CPU_Cost": 0,
   "Mem_Cost": 0,
   "GPU_Cost": 0,
   "App_Cost": 0,
   "StartDate": "2021/01/21",
   "Project": "default"
  },
  {
   "CPU_Hours": 0.26666666666666666,
   "Mem_GB_Hours": 0.0001372443305121528,
   "GPU_Hours": 0,
   "Runtime": 0.011111111111111112,
   "App_Hours": 0.26666666666666666,
   "JobId": "28111",
   "Queue": "q_x86_expr",
   "User": "simforge3",
   "App": "LS-DYNA",
   "JobDescription": "xxp",
   "JobName": "/home/export/online3/amd_share/shangruan/bin/dynayaml /home/export/base/nsccwuxi_amd/simforge3/WORK/wode/11/jxj.k double",
   "Cluster": "aip",
   "CPU_Cost": 0.13333333333333333,
   "Mem_Cost": 0,
   "GPU_Cost": 0,
   "App_Cost": 1.3333333333333333,
   "StartDate": "2021/01/21",
   "Project": "default"
  },
  {
   "CPU_Hours": 0.006666666666666666,
   "Mem_GB_Hours": 0.00000343428717719184,
   "GPU_Hours": 0,
   "Runtime": 0.0002777777777777778,
   "App_Hours": 0.006666666666666666,
   "JobId": "28106",
   "Queue": "q_x86_cn_sim",
   "User": "simforge3",
   "App": "LS-DYNA",
   "JobDescription": "jsjj",
   "JobName": "/home/export/online3/amd_share/shangruan/bin/dynayaml /home/export/base/nsccwuxi_amd/simforge3/WORK/wode/11/jjxxx.k double",
   "Cluster": "aip",
   "CPU_Cost": 0.003333333333333333,
   "Mem_Cost": 0,
   "GPU_Cost": 0,
   "App_Cost": 0.03333333333333333,
   "StartDate": "2021/01/21",
   "Project": "default"
  },
  {
   "CPU_Hours": 3.1200675649766665,
   "Mem_GB_Hours": 0.004066411180107545,
   "GPU_Hours": 0,
   "Runtime": 0.26000563041472224,
   "App_Hours": 3.1200675649766665,
   "JobId": "25063",
   "Queue": "q_x86_expr",
   "User": "simforge3",
   "App": "Abaqus",
   "JobDescription": "ew5",
   "JobName": "/home/export/online3/amd_share/shangruan/bin/abaqus614 /home/export/base/nsccwuxi_amd/simforge3/WORK/wode/Job-3.inp",
   "Cluster": "aip",
   "CPU_Cost": 1.5600337824883332,
   "Mem_Cost": 0,
   "GPU_Cost": 0,
   "App_Cost": 15.600337824883333,
   "StartDate": "2021/01/04",
   "Project": "default"
  },
  {
   "CPU_Hours": 0.008888888888888889,
   "Mem_GB_Hours": 0.0000034289889865451387,
   "GPU_Hours": 0,
   "Runtime": 0.0002777777777777778,
   "App_Hours": 0.008888888888888889,
   "JobId": "28099",
   "Queue": "q_x86_cn_sim",
   "User": "simforge3",
   "App": "LS-DYNA",
   "JobDescription": "kk",
   "JobName": "/home/export/online3/amd_share/shangruan/bin/dynayaml /home/export/base/nsccwuxi_amd/simforge3/WORK/wode/11/jjxxx.k double",
   "Cluster": "aip",
   "CPU_Cost": 0.0044444444444444444,
   "Mem_Cost": 0,
   "GPU_Cost": 0,
   "App_Cost": 0.044444444444444446,
   "StartDate": "2021/01/21",
   "Project": "default"
  },
  {
   "CPU_Hours": 0.06666666666666667,
   "Mem_GB_Hours": 0.00008983612060546875,
   "GPU_Hours": 0,
   "Runtime": 0.005555555555555556,
   "App_Hours": 0.06666666666666667,
   "JobId": "25062",
   "Queue": "q_x86_expr",
   "User": "simforge3",
   "App": "Abaqus",
   "JobDescription": "ew5",
   "JobName": "/home/export/online3/amd_share/shangruan/bin/abaqus614 /home/export/base/nsccwuxi_amd/simforge3/WORK/wode/Job-3.inp",
   "Cluster": "aip",
   "CPU_Cost": 0.03333333333333333,
   "Mem_Cost": 0,
   "GPU_Cost": 0,
   "App_Cost": 0.3333333333333333,
   "StartDate": "2021/01/04",
   "Project": "default"
  },
  {
   "CPU_Hours": 7.716801839563334,
   "Mem_GB_Hours": 0.006649489897207744,
   "GPU_Hours": 0,
   "Runtime": 0.6430668199636111,
   "App_Hours": 7.716801839563334,
   "JobId": "25044",
   "Queue": "q_x86_expr",
   "User": "simforge3",
   "App": "Abaqus",
   "JobDescription": "ww2",
   "JobName": "/home/export/online3/amd_share/shangruan/bin/abaqus614 /home/export/base/nsccwuxi_amd/simforge3/WORK/wode/Job-2.inp",
   "Cluster": "aip",
   "CPU_Cost": 3.858400919781667,
   "Mem_Cost": 0,
   "GPU_Cost": 0,
   "App_Cost": 38.58400919781667,
   "StartDate": "2021/01/04",
   "Project": "default"
  },
  {
   "CPU_Hours": 0.003333333333333333,
   "Mem_GB_Hours": 0.0000044918060302734375,
   "GPU_Hours": 0,
   "Runtime": 0.0002777777777777778,
   "App_Hours": 0.003333333333333333,
   "JobId": "25054",
   "Queue": "q_x86_vio_share",
   "User": "simforge3",
   "App": "Abaqus",
   "JobDescription": "qwe",
   "JobName": "/home/export/online3/amd_share/shangruan/bin/abaqus614 /home/export/base/nsccwuxi_amd/simforge3/WORK/wode/Job-2.inp",
   "Cluster": "aip",
   "CPU_Cost": 0.0016666666666666666,
   "Mem_Cost": 0,
   "GPU_Cost": 0,
   "App_Cost": 0.016666666666666666,
   "StartDate": "2021/01/04",
   "Project": "default"
  },
  {
   "CPU_Hours": 0.24666666666666667,
   "Mem_GB_Hours": 0.000332236819797092,
   "GPU_Hours": 0,
   "Runtime": 0.020555555555555556,
   "App_Hours": 0.24666666666666667,
   "JobId": "25057",
   "Queue": "q_x86_expr",
   "User": "simforge3",
   "App": "Abaqus",
   "JobDescription": "wq4",
   "JobName": "/home/export/online3/amd_share/shangruan/bin/abaqus614 /home/export/base/nsccwuxi_amd/simforge3/WORK/wode/Job-2.inp",
   "Cluster": "aip",
   "CPU_Cost": 0.12333333333333334,
   "Mem_Cost": 0,
   "GPU_Cost": 0,
   "App_Cost": 1.2333333333333334,
   "StartDate": "2021/01/04",
   "Project": "default"
  },
  {
   "CPU_Hours": 15.973862048657779,
   "Mem_GB_Hours": 0.007151362490789939,
   "GPU_Hours": 0,
   "Runtime": 0.9983663780411112,
   "App_Hours": 15.973862048657779,
   "JobId": "28098",
   "Queue": "q_x86_expr",
   "User": "simforge3",
   "App": "LS-DYNA",
   "JobDescription": "ssj",
   "JobName": "/home/export/online3/amd_share/shangruan/bin/dynayaml /home/export/base/nsccwuxi_amd/simforge3/WORK/wode/ddddnnnn/jjxx.k double",
   "Cluster": "aip",
   "CPU_Cost": 7.986931024328889,
   "Mem_Cost": 0,
   "GPU_Cost": 0,
   "App_Cost": 79.86931024328891,
   "StartDate": "2021/01/21",
   "Project": "default"
  },
  {
   "CPU_Hours": 10.253687083966668,
   "Mem_GB_Hours": 0.0038315874934685915,
   "GPU_Hours": 0,
   "Runtime": 0.42723696183194443,
   "App_Hours": 10.253687083966668,
   "JobId": "28108",
   "Queue": "q_x86_expr",
   "User": "simforge3",
   "App": "LS-DYNA",
   "JobDescription": "qq",
   "JobName": "/home/export/online3/amd_share/shangruan/bin/dynayaml /home/export/base/nsccwuxi_amd/simforge3/WORK/wode/11//jjxxx.k double",
   "Cluster": "aip",
   "CPU_Cost": 5.126843541983334,
   "Mem_Cost": 0,
   "GPU_Cost": 0,
   "App_Cost": 51.26843541983334,
   "StartDate": "2021/01/21",
   "Project": "default"
  },
  {
   "CPU_Hours": 0,
   "Mem_GB_Hours": 0,
   "GPU_Hours": 0,
   "Runtime": 0,
   "App_Hours": 0,
   "JobId": "28100",
   "Queue": "q_x86_cn_sim",
   "User": "simforge3",
   "App": "LS-DYNA",
   "JobDescription": "xxx",
   "JobName": "/home/export/online3/amd_share/shangruan/bin/dynayaml /home/export/base/nsccwuxi_amd/simforge3/WORK/wode/11/jjxxx.k double",
   "Cluster": "aip",
   "CPU_Cost": 0,
   "Mem_Cost": 0,
   "GPU_Cost": 0,
   "App_Cost": 0,
   "StartDate": "2021/01/21",
   "Project": "default"
  },
  {
   "CPU_Hours": 0.05,
   "Mem_GB_Hours": 0.00006734530131022135,
   "GPU_Hours": 0,
   "Runtime": 0.004166666666666667,
   "App_Hours": 0.05,
   "JobId": "25055",
   "Queue": "q_x86_expr",
   "User": "simforge3",
   "App": "Abaqus",
   "JobDescription": "12qw",
   "JobName": "/home/export/online3/amd_share/shangruan/bin/abaqus614 /home/export/base/nsccwuxi_amd/simforge3/WORK/wode/Job-2.inp",
   "Cluster": "aip",
   "CPU_Cost": 0.025,
   "Mem_Cost": 0,
   "GPU_Cost": 0,
   "App_Cost": 0.25,
   "StartDate": "2021/01/04",
   "Project": "default"
  },
  {
   "CPU_Hours": 0.21000000000000002,
   "Mem_GB_Hours": 0.0002829837799072266,
   "GPU_Hours": 0,
   "Runtime": 0.0175,
   "App_Hours": 0.21000000000000002,
   "JobId": "25061",
   "Queue": "q_x86_expr",
   "User": "simforge3",
   "App": "Abaqus",
   "JobDescription": "wq3",
   "JobName": "/home/export/online3/amd_share/shangruan/bin/abaqus614 /home/export/base/nsccwuxi_amd/simforge3/WORK/wode/Job-21.inp",
   "Cluster": "aip",
   "CPU_Cost": 0.10500000000000001,
   "Mem_Cost": 0,
   "GPU_Cost": 0,
   "App_Cost": 1.05,
   "StartDate": "2021/01/04",
   "Project": "default"
  },
  {
   "CPU_Hours": 0.003333333333333333,
   "Mem_GB_Hours": 0.000004490746392144097,
   "GPU_Hours": 0,
   "Runtime": 0.0002777777777777778,
   "App_Hours": 0.003333333333333333,
   "JobId": "25037",
   "Queue": "q_x86_vio_share",
   "User": "simforge3",
   "App": "Abaqus",
   "JobDescription": "wsx",
   "JobName": "/home/export/online3/amd_share/shangruan/bin/abaqus614 /home/export/base/nsccwuxi_amd/simforge3/WORK/wode/Job-1.inp",
   "Cluster": "aip",
   "CPU_Cost": 0.0016666666666666666,
   "Mem_Cost": 0,
   "GPU_Cost": 0,
   "App_Cost": 0.016666666666666666,
   "StartDate": "2021/01/04",
   "Project": "default"
  },
  {
   "CPU_Hours": 0.15555555555555556,
   "Mem_GB_Hours": 0.00011997752719455295,
   "GPU_Hours": 0,
   "Runtime": 0.009722222222222222,
   "App_Hours": 0.15555555555555556,
   "JobId": "28096",
   "Queue": "q_x86_expr",
   "User": "simforge3",
   "App": "LS-DYNA",
   "JobDescription": "js",
   "JobName": "/home/export/online3/amd_share/shangruan/bin/dynayaml /home/export/base/nsccwuxi_amd/simforge3/WORK/wode/ddddnnnn/jjxx.k double",
   "Cluster": "aip",
   "CPU_Cost": 0.07777777777777778,
   "Mem_Cost": 0,
   "GPU_Cost": 0,
   "App_Cost": 0.7777777777777778,
   "StartDate": "2021/01/21",
   "Project": "default"
  },
  {
   "CPU_Hours": 0.003333333333333333,
   "Mem_GB_Hours": 0.0000044918060302734375,
   "GPU_Hours": 0,
   "Runtime": 0.0002777777777777778,
   "App_Hours": 0.003333333333333333,
   "JobId": "25043",
   "Queue": "q_x86_cn_sim",
   "User": "simforge3",
   "App": "Abaqus",
   "JobDescription": "qq21",
   "JobName": "/home/export/online3/amd_share/shangruan/bin/abaqus614 /home/export/base/nsccwuxi_amd/simforge3/WORK/wode/Job-2.inp",
   "Cluster": "aip",
   "CPU_Cost": 0.0016666666666666666,
   "Mem_Cost": 0,
   "GPU_Cost": 0,
   "App_Cost": 0.016666666666666666,
   "StartDate": "2021/01/04",
   "Project": "default"
  },
  {
   "CPU_Hours": 0.19666666666666668,
   "Mem_GB_Hours": 0.00026501655578613285,
   "GPU_Hours": 0,
   "Runtime": 0.01638888888888889,
   "App_Hours": 0.19666666666666668,
   "JobId": "25059",
   "Queue": "q_x86_expr",
   "User": "simforge3",
   "App": "Abaqus",
   "JobDescription": "ty4",
   "JobName": "/home/export/online3/amd_share/shangruan/bin/abaqus614 /home/export/base/nsccwuxi_amd/simforge3/WORK/wode/Job-2.inp",
   "Cluster": "aip",
   "CPU_Cost": 0.09833333333333334,
   "Mem_Cost": 0,
   "GPU_Cost": 0,
   "App_Cost": 0.9833333333333334,
   "StartDate": "2021/01/04",
   "Project": "default"
  },
  {
   "CPU_Hours": 0.04666666666666666,
   "Mem_GB_Hours": 0.00006285561455620659,
   "GPU_Hours": 0,
   "Runtime": 0.0038888888888888888,
   "App_Hours": 0.04666666666666666,
   "JobId": "25056",
   "Queue": "q_x86_expr",
   "User": "simforge3",
   "App": "Abaqus",
   "JobDescription": "12qw",
   "JobName": "/home/export/online3/amd_share/shangruan/bin/abaqus614 /home/export/base/nsccwuxi_amd/simforge3/WORK/wode/Job-2.inp",
   "Cluster": "aip",
   "CPU_Cost": 0.02333333333333333,
   "Mem_Cost": 0,
   "GPU_Cost": 0,
   "App_Cost": 0.2333333333333333,
   "StartDate": "2021/01/04",
   "Project": "default"
  }
 ]
}