{"GPU_Hours":0,"App_Hours":{"PointWise":{"Hours":0.086666666666667,"UnitPrice":5,"Cost":0.43333333333333},"TankSim":{"Hours":0.086388888888889,"UnitPrice":1,"Cost":0.086388888888889},"LS-DYNA":{"Hours":26.353333333333,"UnitPrice":5,"Cost":131.76666666667},"Abaqus2017":{"Hours":3.3388888888889,"UnitPrice":5,"Cost":16.694444444444},"Fluent":{"Hours":2.3030555555556,"UnitPrice":5,"Cost":11.515277777778},"ICEM-CFD":{"Hours":71.696666666667,"UnitPrice":5,"Cost":358.48333333333},"ParaView":{"Hours":71.764722222222,"UnitPrice":0.5,"Cost":35.882361111111},"LSPrePost":{"Hours":79.057222222222,"UnitPrice":0,"Cost":0},"Abaqus":{"Hours":79.160555555556,"UnitPrice":5,"Cost":395.80277777778}},"Month":"2020-07","CPU_Hours":333.8475,"Users":{"simforge3":1139.289973365},"Mem_GB_Hours":217.01640031709,"App_Cost":950.66458333333,"Mem_Cost":21.701640031709,"GPU_Cost":0,"Total_Cost":1139.289973365,"CPU_Cost":166.92375,"Details":[{"EndDate":"2020\/07\/19","GPU_Hours":0,"App":"PointWise","JobName":"cubevnc","JobId":"5111","Queue":"local","Cluster":"aip","CPU_Hours":0.01,"User":"simforge3","Mem_GB_Hours":0.0012232971191406,"runTime":0.01,"JobDescription":"PW_test","GPU_Cost":0,"CPU_Cost":0.005,"Mem_Cost":0.00012232971191406,"App_Cost":0.05},{"EndDate":"2020\/07\/19","GPU_Hours":0,"App":"PointWise","JobName":"cubevnc","JobId":"5112","Queue":"local","Cluster":"aip","CPU_Hours":0.076666666666667,"User":"simforge3","Mem_GB_Hours":0.020550295511882,"runTime":0.076666666666667,"JobDescription":"PW_test","GPU_Cost":0,"CPU_Cost":0.038333333333333,"Mem_Cost":0.0020550295511882,"App_Cost":0.38333333333333},{"EndDate":"2020\/07\/19","GPU_Hours":0,"App":"TankSim","JobName":"cubevnc","JobId":"5131","Queue":"local","Cluster":"aip","CPU_Hours":0.086388888888889,"User":"simforge3","Mem_GB_Hours":0.0087791442871094,"runTime":0.086388888888889,"JobDescription":"tank01","GPU_Cost":0,"CPU_Cost":0.043194444444444,"Mem_Cost":0.00087791442871094,"App_Cost":0.086388888888889},{"EndDate":"2020\/07\/19","GPU_Hours":0,"App":"LS-DYNA","JobName":"\/home\/export\/base\/nsccwuxi_amd\/simforge3\/GPFS8p\/lsdyna\/Caravan-V03c-2400k-main-shell16-10ms.k","JobId":"5134","Queue":"q_x86_share","Cluster":"aip","CPU_Hours":26.353333333333,"User":"simforge3","Mem_GB_Hours":0.011933747397529,"runTime":1.0980555555556,"JobDescription":"Caravan-V03c-2400k-main-shell16-10ms.k","GPU_Cost":0,"CPU_Cost":13.176666666667,"Mem_Cost":0.0011933747397529,"App_Cost":131.76666666667},{"EndDate":"2020\/07\/19","GPU_Hours":0,"App":"Abaqus2017","JobName":"Job-125051","JobId":"5132","Queue":"q_x86_share","Cluster":"aip","CPU_Hours":3.3388888888889,"User":"simforge3","Mem_GB_Hours":0.018366538153754,"runTime":1.6694444444444,"JobDescription":"Job-125051-e1","GPU_Cost":0,"CPU_Cost":1.6694444444444,"Mem_Cost":0.0018366538153754,"App_Cost":16.694444444444},{"EndDate":"2020\/07\/21","GPU_Hours":0,"App":"Fluent","JobName":"cubevnc","JobId":"5303","Queue":"q_x86_share","Cluster":"aip","CPU_Hours":2.24,"User":"simforge3","Mem_GB_Hours":0.0033399963378906,"runTime":0.046666666666667,"JobDescription":"fluen_test","GPU_Cost":0,"CPU_Cost":1.12,"Mem_Cost":0.00033399963378906,"App_Cost":11.2},{"EndDate":"2020\/07\/22","GPU_Hours":0,"App":"ICEM-CFD","JobName":"cubevnc","JobId":"5166","Queue":"local","Cluster":"aip","CPU_Hours":71.696666666667,"User":"simforge3","Mem_GB_Hours":15.013021189372,"runTime":71.696666666667,"JobDescription":"icem3","GPU_Cost":0,"CPU_Cost":35.848333333333,"Mem_Cost":1.5013021189372,"App_Cost":358.48333333333},{"EndDate":"2020\/07\/22","GPU_Hours":0,"App":"ParaView","JobName":"cubevnc","JobId":"5165","Queue":"local","Cluster":"aip","CPU_Hours":71.764722222222,"User":"simforge3","Mem_GB_Hours":26.982127330568,"runTime":71.764722222222,"JobDescription":"pv3","GPU_Cost":0,"CPU_Cost":35.882361111111,"Mem_Cost":2.6982127330568,"App_Cost":35.882361111111},{"EndDate":"2020\/07\/22","GPU_Hours":0,"App":"LSPrePost","JobName":"cubevnc","JobId":"5133","Queue":"local","Cluster":"aip","CPU_Hours":79.057222222222,"User":"simforge3","Mem_GB_Hours":104.75691134771,"runTime":79.057222222222,"JobDescription":"dynatest01","GPU_Cost":0,"CPU_Cost":39.528611111111,"Mem_Cost":10.475691134771,"App_Cost":0},{"EndDate":"2020\/07\/22","GPU_Hours":0,"App":"Abaqus","JobName":"cubevnc","JobId":"5130","Queue":"local","Cluster":"aip","CPU_Hours":79.160555555556,"User":"simforge3","Mem_GB_Hours":70.194960712857,"runTime":79.160555555556,"JobDescription":"abatest01","GPU_Cost":0,"CPU_Cost":39.580277777778,"Mem_Cost":7.0194960712857,"App_Cost":395.80277777778},{"EndDate":"2020\/07\/24","GPU_Hours":0,"App":"Fluent","JobName":"cubevnc","JobId":"5740","Queue":"q_x86_expr","Cluster":"aip","CPU_Hours":0.063055555555556,"User":"simforge3","Mem_GB_Hours":0.0051867177751329,"runTime":0.063055555555556,"JobDescription":"fluent_test","GPU_Cost":0,"CPU_Cost":0.031527777777778,"Mem_Cost":0.00051867177751329,"App_Cost":0.31527777777778}],"User":"simforge3"}