{"GPU_Hours":12.985555555556,"App_Hours":{"Abaqus":{"Hours":1.1130555555556,"UnitPrice":5,"Cost":5.5652777777778},"TankSim":{"Hours":11.511666666667,"UnitPrice":1,"Cost":11.511666666667},"LS-DYNA":{"Hours":0.26111111111111,"UnitPrice":5,"Cost":1.3055555555556},"LSPrePost":{"Hours":0.36083333333333,"UnitPrice":0,"Cost":0},"Abaqus2017":{"Hours":6.8866666666667,"UnitPrice":5,"Cost":34.433333333333}},"Month":"2020-08","CPU_Hours":20.133333333333,"Users":{"simforgetest2":69.663341176563},"Mem_GB_Hours":2.8806339878506,"App_Cost":52.815833333333,"Mem_Cost":0.28806339878506,"GPU_Cost":6.4927777777778,"Total_Cost":69.663341176563,"CPU_Cost":10.066666666667,"Details":[{"EndDate":"2020\/08\/03","GPU_Hours":0.034166666666667,"App":"Abaqus","JobName":"cubevnc","JobId":"6403","Queue":"local","Cluster":"aip","CPU_Hours":0.034166666666667,"User":"simforgetest2","Mem_GB_Hours":0.015822989145915,"runTime":0.034166666666667,"JobDescription":"abaqus02","GPU_Cost":0.017083333333333,"CPU_Cost":0.017083333333333,"Mem_Cost":0.0015822989145915,"App_Cost":0.17083333333333},{"EndDate":"2020\/08\/03","GPU_Hours":0.054722222222222,"App":"Abaqus","JobName":"cubevnc","JobId":"6404","Queue":"local","Cluster":"aip","CPU_Hours":0.054722222222222,"User":"simforgetest2","Mem_GB_Hours":0.033773871527778,"runTime":0.054722222222222,"JobDescription":"abaqusnew02","GPU_Cost":0.027361111111111,"CPU_Cost":0.027361111111111,"Mem_Cost":0.0033773871527778,"App_Cost":0.27361111111111},{"EndDate":"2020\/08\/03","GPU_Hours":0.12444444444444,"App":"Abaqus","JobName":"cubevnc","JobId":"6435","Queue":"local","Cluster":"aip","CPU_Hours":0.12444444444444,"User":"simforgetest2","Mem_GB_Hours":0.076755710177951,"runTime":0.12444444444444,"JobDescription":"abaqus01","GPU_Cost":0.062222222222222,"CPU_Cost":0.062222222222222,"Mem_Cost":0.0076755710177951,"App_Cost":0.62222222222222},{"EndDate":"2020\/08\/03","GPU_Hours":3.3844444444444,"App":"TankSim","JobName":"cubevnc","JobId":"6428","Queue":"local","Cluster":"aip","CPU_Hours":3.3844444444444,"User":"simforgetest2","Mem_GB_Hours":0.55362076653375,"runTime":3.3844444444444,"JobDescription":"maxsalome01","GPU_Cost":1.6922222222222,"CPU_Cost":1.6922222222222,"Mem_Cost":0.055362076653375,"App_Cost":3.3844444444444},{"EndDate":"2020\/08\/03","GPU_Hours":0.042222222222222,"App":"Abaqus","JobName":"cubevnc","JobId":"6438","Queue":"local","Cluster":"aip","CPU_Hours":0.042222222222222,"User":"simforgetest2","Mem_GB_Hours":0.01744253370497,"runTime":0.042222222222222,"JobDescription":"aba03","GPU_Cost":0.021111111111111,"CPU_Cost":0.021111111111111,"Mem_Cost":0.001744253370497,"App_Cost":0.21111111111111},{"EndDate":"2020\/08\/03","GPU_Hours":0.074444444444444,"App":"Abaqus","JobName":"cubevnc","JobId":"6437","Queue":"local","Cluster":"aip","CPU_Hours":0.074444444444444,"User":"simforgetest2","Mem_GB_Hours":0.042957543267144,"runTime":0.074444444444444,"JobDescription":"abaqu02","GPU_Cost":0.037222222222222,"CPU_Cost":0.037222222222222,"Mem_Cost":0.0042957543267144,"App_Cost":0.37222222222222},{"EndDate":"2020\/08\/04","GPU_Hours":0,"App":"LS-DYNA","JobName":"\/home\/export\/online3\/simforgetest2\/simforgetest2\/dyna\/4.2_Buckling_of_Beer_Can.key","JobId":"6559","Queue":"q_x86_expr","Cluster":"aip","CPU_Hours":0.26111111111111,"User":"simforgetest2","Mem_GB_Hours":0.0015105247497559,"runTime":0.13055555555556,"JobDescription":"4.2_Buckling_of_Beer_Can.key","GPU_Cost":0,"CPU_Cost":0.13055555555556,"Mem_Cost":0.00015105247497559,"App_Cost":1.3055555555556},{"EndDate":"2020\/08\/04","GPU_Hours":0.33527777777778,"App":"LSPrePost","JobName":"cubevnc","JobId":"6558","Queue":"local","Cluster":"aip","CPU_Hours":0.33527777777778,"User":"simforgetest2","Mem_GB_Hours":0.11875487115648,"runTime":0.33527777777778,"JobDescription":"qiuxiao","GPU_Cost":0.16763888888889,"CPU_Cost":0.16763888888889,"Mem_Cost":0.011875487115648,"App_Cost":0},{"EndDate":"2020\/08\/04","GPU_Hours":0,"App":"Abaqus2017","JobName":"Job-090013","JobId":"6557","Queue":"q_x86_expr","Cluster":"aip","CPU_Hours":6.8866666666667,"User":"simforgetest2","Mem_GB_Hours":0.0085269822014703,"runTime":0.57388888888889,"JobDescription":"Job-090013-e1","GPU_Cost":0,"CPU_Cost":3.4433333333333,"Mem_Cost":0.00085269822014703,"App_Cost":34.433333333333},{"EndDate":"2020\/08\/04","GPU_Hours":0.78305555555556,"App":"Abaqus","JobName":"cubevnc","JobId":"6556","Queue":"local","Cluster":"aip","CPU_Hours":0.78305555555556,"User":"simforgetest2","Mem_GB_Hours":0.49957489119636,"runTime":0.78305555555556,"JobDescription":"abaq0804","GPU_Cost":0.39152777777778,"CPU_Cost":0.39152777777778,"Mem_Cost":0.049957489119636,"App_Cost":3.9152777777778},{"EndDate":"2020\/08\/04","GPU_Hours":0.025555555555556,"App":"LSPrePost","JobName":"cubevnc","JobId":"6563","Queue":"local","Cluster":"aip","CPU_Hours":0.025555555555556,"User":"simforgetest2","Mem_GB_Hours":0.0069198989868164,"runTime":0.025555555555556,"JobDescription":"qiuxiao","GPU_Cost":0.012777777777778,"CPU_Cost":0.012777777777778,"Mem_Cost":0.00069198989868164,"App_Cost":0},{"EndDate":"2020\/08\/04","GPU_Hours":8.1272222222222,"App":"TankSim","JobName":"cubevnc","JobId":"6560","Queue":"local","Cluster":"aip","CPU_Hours":8.1272222222222,"User":"simforgetest2","Mem_GB_Hours":1.5049734052022,"runTime":8.1272222222222,"JobDescription":"tankdemo","GPU_Cost":4.0636111111111,"CPU_Cost":4.0636111111111,"Mem_Cost":0.15049734052022,"App_Cost":8.1272222222222}],"User":"simforgetest2"}