{"GPU_Hours":59.203611111111,"App_Hours":{"StarCCM":{"Hours":267.2775,"UnitPrice":5,"Cost":1336.3875},"Fluent":{"Hours":39.344722222222,"UnitPrice":5,"Cost":196.72361111111},"Abaqus":{"Hours":315.88694444444,"UnitPrice":5,"Cost":1579.4347222222},"ParaView":{"Hours":186.55555555556,"UnitPrice":0.5,"Cost":93.277777777778},"LSPrePost":{"Hours":400.03444444444,"UnitPrice":0,"Cost":0},"TankSim":{"Hours":147.79833333333,"UnitPrice":1,"Cost":147.79833333333},"Abaqus2017":{"Hours":20.050277777778,"UnitPrice":5,"Cost":100.25138888889},"LS-DYNA-R10double":{"Hours":0.25944444444444,"UnitPrice":0,"Cost":0},"PointWise":{"Hours":124.70194444444,"UnitPrice":5,"Cost":623.50972222222},"LS-DYNA":{"Hours":894.81361111111,"UnitPrice":5,"Cost":4474.0680555556},"ICEM-CFD":{"Hours":143.93583333333,"UnitPrice":5,"Cost":719.67916666667},"Tanksimulator-Calculix":{"Hours":1.3130555555556,"UnitPrice":0,"Cost":0},"Tanksimulator-Openfoam":{"Hours":1.1727777777778,"UnitPrice":0,"Cost":0},"Tanksimulator-MeshGenerate":{"Hours":0.26111111111111,"UnitPrice":0,"Cost":0},"setFields":{"Hours":0.0038888888888889,"UnitPrice":0,"Cost":0},"decomposePar":{"Hours":0.0075,"UnitPrice":0,"Cost":0},"interFoam":{"Hours":10.63,"UnitPrice":0,"Cost":0}},"Month":"2020-07","CPU_Hours":2554.2902777778,"Users":{"simforgetest2":10681.389577164},"Mem_GB_Hours":1035.1235494169,"App_Cost":9271.1302777778,"Mem_Cost":103.51235494169,"GPU_Cost":29.601805555556,"Total_Cost":10681.389577164,"CPU_Cost":1277.1451388889,"Details":[{"EndDate":"2020\/07\/01","GPU_Hours":0,"App":"StarCCM","JobName":"cubevnc","JobId":"2756","Queue":"q_x86_expr","Cluster":"aip","CPU_Hours":0.038888888888889,"User":"simforgetest2","Mem_GB_Hours":0.0027831819322374,"runTime":0.038888888888889,"JobDescription":"starccm_test","GPU_Cost":0,"CPU_Cost":0.019444444444444,"Mem_Cost":0.00027831819322374,"App_Cost":0.19444444444444},{"EndDate":"2020\/07\/01","GPU_Hours":0,"App":"StarCCM","JobName":"cubevnc","JobId":"2757","Queue":"q_x86_expr","Cluster":"aip","CPU_Hours":0.083333333333333,"User":"simforgetest2","Mem_GB_Hours":0.0014653205871582,"runTime":0.020833333333333,"JobDescription":"starccm_test","GPU_Cost":0,"CPU_Cost":0.041666666666667,"Mem_Cost":0.00014653205871582,"App_Cost":0.41666666666667},{"EndDate":"2020\/07\/01","GPU_Hours":0,"App":"Fluent","JobName":"cubevnc","JobId":"2762","Queue":"q_x86_expr","Cluster":"aip","CPU_Hours":0.22916666666667,"User":"simforgetest2","Mem_GB_Hours":0.017749786376953,"runTime":0.22916666666667,"JobDescription":"fluent_test","GPU_Cost":0,"CPU_Cost":0.11458333333333,"Mem_Cost":0.0017749786376953,"App_Cost":1.1458333333333},{"EndDate":"2020\/07\/01","GPU_Hours":0,"App":"Fluent","JobName":"cubevnc","JobId":"2764","Queue":"q_x86_share","Cluster":"aip","CPU_Hours":0.0055555555555556,"User":"simforgetest2","Mem_GB_Hours":7.9621209038628e-5,"runTime":0.0027777777777778,"JobDescription":"fluent_test","GPU_Cost":0,"CPU_Cost":0.0027777777777778,"Mem_Cost":7.9621209038628e-6,"App_Cost":0.027777777777778},{"EndDate":"2020\/07\/01","GPU_Hours":0,"App":"Fluent","JobName":"cubevnc","JobId":"2765","Queue":"q_x86_expr","Cluster":"aip","CPU_Hours":0.014444444444444,"User":"simforgetest2","Mem_GB_Hours":0.00048613018459744,"runTime":0.0072222222222222,"JobDescription":"fluent1","GPU_Cost":0,"CPU_Cost":0.0072222222222222,"Mem_Cost":4.8613018459744e-5,"App_Cost":0.072222222222222},{"EndDate":"2020\/07\/01","GPU_Hours":0,"App":"Fluent","JobName":"cubevnc","JobId":"2766","Queue":"q_x86_expr","Cluster":"aip","CPU_Hours":0.022222222222222,"User":"simforgetest2","Mem_GB_Hours":0.00074920654296875,"runTime":0.011111111111111,"JobDescription":"fluent1","GPU_Cost":0,"CPU_Cost":0.011111111111111,"Mem_Cost":7.4920654296875e-5,"App_Cost":0.11111111111111},{"EndDate":"2020\/07\/01","GPU_Hours":0,"App":"Fluent","JobName":"cubevnc","JobId":"2767","Queue":"q_x86_expr","Cluster":"aip","CPU_Hours":0.01,"User":"simforgetest2","Mem_GB_Hours":0.00033651351928711,"runTime":0.005,"JobDescription":"fluent1","GPU_Cost":0,"CPU_Cost":0.005,"Mem_Cost":3.3651351928711e-5,"App_Cost":0.05},{"EndDate":"2020\/07\/01","GPU_Hours":0,"App":"Fluent","JobName":"cubevnc","JobId":"2768","Queue":"q_x86_expr","Cluster":"aip","CPU_Hours":0.049444444444444,"User":"simforgetest2","Mem_GB_Hours":0.0016640610165066,"runTime":0.024722222222222,"JobDescription":"fluent1","GPU_Cost":0,"CPU_Cost":0.024722222222222,"Mem_Cost":0.00016640610165066,"App_Cost":0.24722222222222},{"EndDate":"2020\/07\/01","GPU_Hours":0,"App":"Fluent","JobName":"cubevnc","JobId":"2769","Queue":"q_x86_share","Cluster":"aip","CPU_Hours":0.0027777777777778,"User":"simforgetest2","Mem_GB_Hours":7.9663594563802e-5,"runTime":0.0027777777777778,"JobDescription":"fluent_test_2","GPU_Cost":0,"CPU_Cost":0.0013888888888889,"Mem_Cost":7.9663594563802e-6,"App_Cost":0.013888888888889},{"EndDate":"2020\/07\/01","GPU_Hours":0,"App":"Fluent","JobName":"cubevnc","JobId":"2770","Queue":"q_x86_expr","Cluster":"aip","CPU_Hours":0.014444444444444,"User":"simforgetest2","Mem_GB_Hours":0.00048596488104926,"runTime":0.0072222222222222,"JobDescription":"fluent1","GPU_Cost":0,"CPU_Cost":0.0072222222222222,"Mem_Cost":4.8596488104926e-5,"App_Cost":0.072222222222222},{"EndDate":"2020\/07\/01","GPU_Hours":0,"App":"Fluent","JobName":"cubevnc","JobId":"2772","Queue":"q_x86_expr","Cluster":"aip","CPU_Hours":0.028333333333333,"User":"simforgetest2","Mem_GB_Hours":0.0010218175252279,"runTime":0.014166666666667,"JobDescription":"fluent1","GPU_Cost":0,"CPU_Cost":0.014166666666667,"Mem_Cost":0.00010218175252279,"App_Cost":0.14166666666667},{"EndDate":"2020\/07\/01","GPU_Hours":0,"App":"Abaqus","JobName":"cubevnc","JobId":"2665","Queue":"q_x86_expr","Cluster":"aip","CPU_Hours":20.196388888889,"User":"simforgetest2","Mem_GB_Hours":11.327956557804,"runTime":20.196388888889,"JobDescription":"abatest02","GPU_Cost":0,"CPU_Cost":10.098194444444,"Mem_Cost":1.1327956557804,"App_Cost":100.98194444444},{"EndDate":"2020\/07\/01","GPU_Hours":0,"App":"Abaqus","JobName":"cubevnc","JobId":"2826","Queue":"q_x86_expr","Cluster":"aip","CPU_Hours":0.013333333333333,"User":"simforgetest2","Mem_GB_Hours":0.0063839721679687,"runTime":0.013333333333333,"JobDescription":"abaqusnew01","GPU_Cost":0,"CPU_Cost":0.0066666666666667,"Mem_Cost":0.00063839721679688,"App_Cost":0.066666666666667},{"EndDate":"2020\/07\/01","GPU_Hours":0,"App":"ParaView","JobName":"cubevnc","JobId":"2689","Queue":"q_x86_expr","Cluster":"aip","CPU_Hours":19.216388888889,"User":"simforgetest2","Mem_GB_Hours":20.532208364275,"runTime":19.216388888889,"JobDescription":"test03","GPU_Cost":0,"CPU_Cost":9.6081944444444,"Mem_Cost":2.0532208364275,"App_Cost":9.6081944444444},{"EndDate":"2020\/07\/01","GPU_Hours":0,"App":"Abaqus","JobName":"cubevnc","JobId":"2705","Queue":"q_x86_expr","Cluster":"aip","CPU_Hours":18.021111111111,"User":"simforgetest2","Mem_GB_Hours":10.472763476902,"runTime":18.021111111111,"JobDescription":"hot","GPU_Cost":0,"CPU_Cost":9.0105555555556,"Mem_Cost":1.0472763476902,"App_Cost":90.105555555556},{"EndDate":"2020\/07\/01","GPU_Hours":0,"App":"LSPrePost","JobName":"cubevnc","JobId":"2700","Queue":"q_x86_expr","Cluster":"aip","CPU_Hours":18.300277777778,"User":"simforgetest2","Mem_GB_Hours":5.9366440667046,"runTime":18.300277777778,"JobDescription":"multijob","GPU_Cost":0,"CPU_Cost":9.1501388888889,"Mem_Cost":0.59366440667046,"App_Cost":0},{"EndDate":"2020\/07\/01","GPU_Hours":0,"App":"TankSim","JobName":"cubevnc","JobId":"2699","Queue":"q_x86_expr","Cluster":"aip","CPU_Hours":18.666944444444,"User":"simforgetest2","Mem_GB_Hours":3.4688626543681,"runTime":18.666944444444,"JobDescription":"Tanktest01","GPU_Cost":0,"CPU_Cost":9.3334722222222,"Mem_Cost":0.34688626543681,"App_Cost":18.666944444444},{"EndDate":"2020\/07\/01","GPU_Hours":0,"App":"Abaqus","JobName":"cubevnc","JobId":"2680","Queue":"q_x86_expr","Cluster":"aip","CPU_Hours":19.878055555556,"User":"simforgetest2","Mem_GB_Hours":10.135727592044,"runTime":19.878055555556,"JobDescription":"abaplugin","GPU_Cost":0,"CPU_Cost":9.9390277777778,"Mem_Cost":1.0135727592044,"App_Cost":99.390277777778},{"EndDate":"2020\/07\/01","GPU_Hours":0,"App":"LSPrePost","JobName":"cubevnc","JobId":"2663","Queue":"q_x86_expr","Cluster":"aip","CPU_Hours":20.283055555556,"User":"simforgetest2","Mem_GB_Hours":7.4274125480652,"runTime":20.283055555556,"JobDescription":"display02","GPU_Cost":0,"CPU_Cost":10.141527777778,"Mem_Cost":0.74274125480652,"App_Cost":0},{"EndDate":"2020\/07\/01","GPU_Hours":0,"App":"ParaView","JobName":"cubevnc","JobId":"2615","Queue":"q_x86_expr","Cluster":"aip","CPU_Hours":23.627777777778,"User":"simforgetest2","Mem_GB_Hours":10.304975361294,"runTime":23.627777777778,"JobDescription":"pv02","GPU_Cost":0,"CPU_Cost":11.813888888889,"Mem_Cost":1.0304975361294,"App_Cost":11.813888888889},{"EndDate":"2020\/07\/01","GPU_Hours":0,"App":"Abaqus","JobName":"cubevnc","JobId":"2831","Queue":"q_x86_expr","Cluster":"aip","CPU_Hours":0.023333333333333,"User":"simforgetest2","Mem_GB_Hours":0.01149897257487,"runTime":0.023333333333333,"JobDescription":"abatest04","GPU_Cost":0,"CPU_Cost":0.011666666666667,"Mem_Cost":0.001149897257487,"App_Cost":0.11666666666667},{"EndDate":"2020\/07\/01","GPU_Hours":0,"App":"Abaqus2017","JobName":"Job-114111","JobId":"2851","Queue":"q_x86_expr","Cluster":"aip","CPU_Hours":0.072222222222222,"User":"simforgetest2","Mem_GB_Hours":0.00060845481024848,"runTime":0.036111111111111,"JobDescription":"Job-114111-explicit","GPU_Cost":0,"CPU_Cost":0.036111111111111,"Mem_Cost":6.0845481024848e-5,"App_Cost":0.36111111111111},{"EndDate":"2020\/07\/01","GPU_Hours":0,"App":"TankSim","JobName":"cubevnc","JobId":"2855","Queue":"q_x86_expr","Cluster":"aip","CPU_Hours":0.0052777777777778,"User":"simforgetest2","Mem_GB_Hours":0.00063316663106283,"runTime":0.0052777777777778,"JobDescription":"Tanktest01","GPU_Cost":0,"CPU_Cost":0.0026388888888889,"Mem_Cost":6.3316663106283e-5,"App_Cost":0.0052777777777778},{"EndDate":"2020\/07\/01","GPU_Hours":0,"App":"LS-DYNA-R10double","JobName":"\/home\/export\/base\/nsccwuxi_amd\/simforgetest2\/online1\/TestData\/TestData\/lsdyna\/can\/4.2_Buckling_of_Beer_Can.key","JobId":"2854","Queue":"q_x86_expr","Cluster":"aip","CPU_Hours":0.25944444444444,"User":"simforgetest2","Mem_GB_Hours":0.00218674659729,"runTime":0.12972222222222,"JobDescription":"4.2_Buckling_of_Beer_Can.key","GPU_Cost":0,"CPU_Cost":0.12972222222222,"Mem_Cost":0.000218674659729,"App_Cost":0},{"EndDate":"2020\/07\/01","GPU_Hours":0,"App":"PointWise","JobName":"cubevnc","JobId":"2867","Queue":"q_x86_expr","Cluster":"aip","CPU_Hours":0.043611111111111,"User":"simforgetest2","Mem_GB_Hours":0.014033566580878,"runTime":0.043611111111111,"JobDescription":"PW_test","GPU_Cost":0,"CPU_Cost":0.021805555555556,"Mem_Cost":0.0014033566580878,"App_Cost":0.21805555555556},{"EndDate":"2020\/07\/01","GPU_Hours":0,"App":"StarCCM","JobName":"cubevnc","JobId":"2868","Queue":"q_x86_expr","Cluster":"aip","CPU_Hours":0.2,"User":"simforgetest2","Mem_GB_Hours":0.019492149353027,"runTime":0.025,"JobDescription":"starccm_test","GPU_Cost":0,"CPU_Cost":0.1,"Mem_Cost":0.0019492149353027,"App_Cost":1},{"EndDate":"2020\/07\/01","GPU_Hours":0,"App":"TankSim","JobName":"cubevnc","JobId":"2870","Queue":"q_x86_expr","Cluster":"aip","CPU_Hours":0.0052777777777778,"User":"simforgetest2","Mem_GB_Hours":0.00063457594977485,"runTime":0.0052777777777778,"JobDescription":"Tanktest01","GPU_Cost":0,"CPU_Cost":0.0026388888888889,"Mem_Cost":6.3457594977485e-5,"App_Cost":0.0052777777777778},{"EndDate":"2020\/07\/01","GPU_Hours":0,"App":"TankSim","JobName":"cubevnc","JobId":"2871","Queue":"q_x86_expr","Cluster":"aip","CPU_Hours":0.0055555555555556,"User":"simforgetest2","Mem_GB_Hours":0.00064296722412109,"runTime":0.0055555555555556,"JobDescription":"tanklaunch","GPU_Cost":0,"CPU_Cost":0.0027777777777778,"Mem_Cost":6.4296722412109e-5,"App_Cost":0.0055555555555556},{"EndDate":"2020\/07\/01","GPU_Hours":0,"App":"StarCCM","JobName":"cubevnc","JobId":"2869","Queue":"q_x86_expr","Cluster":"aip","CPU_Hours":1.4933333333333,"User":"simforgetest2","Mem_GB_Hours":0.14931467692057,"runTime":0.18666666666667,"JobDescription":"starccm_test","GPU_Cost":0,"CPU_Cost":0.74666666666667,"Mem_Cost":0.014931467692057,"App_Cost":7.4666666666667},{"EndDate":"2020\/07\/01","GPU_Hours":0,"App":"TankSim","JobName":"cubevnc","JobId":"2872","Queue":"q_x86_expr","Cluster":"aip","CPU_Hours":0.0052777777777778,"User":"simforgetest2","Mem_GB_Hours":0.00062297927008735,"runTime":0.0052777777777778,"JobDescription":"tanklog01","GPU_Cost":0,"CPU_Cost":0.0026388888888889,"Mem_Cost":6.2297927008735e-5,"App_Cost":0.0052777777777778},{"EndDate":"2020\/07\/01","GPU_Hours":0,"App":"TankSim","JobName":"cubevnc","JobId":"2886","Queue":"q_x86_expr","Cluster":"aip","CPU_Hours":0.0052777777777778,"User":"simforgetest2","Mem_GB_Hours":0.00060987260606554,"runTime":0.0052777777777778,"JobDescription":"Tanktest01","GPU_Cost":0,"CPU_Cost":0.0026388888888889,"Mem_Cost":6.0987260606554e-5,"App_Cost":0.0052777777777778},{"EndDate":"2020\/07\/01","GPU_Hours":0,"App":"LSPrePost","JobName":"cubevnc","JobId":"2853","Queue":"q_x86_expr","Cluster":"aip","CPU_Hours":5.2283333333333,"User":"simforgetest2","Mem_GB_Hours":1.7554358927409,"runTime":5.2283333333333,"JobDescription":"multijob","GPU_Cost":0,"CPU_Cost":2.6141666666667,"Mem_Cost":0.17554358927409,"App_Cost":0},{"EndDate":"2020\/07\/01","GPU_Hours":0,"App":"TankSim","JobName":"cubevnc","JobId":"2887","Queue":"q_x86_expr","Cluster":"aip","CPU_Hours":0.054166666666667,"User":"simforgetest2","Mem_GB_Hours":0.0064714272816976,"runTime":0.054166666666667,"JobDescription":"tanklog01","GPU_Cost":0,"CPU_Cost":0.027083333333333,"Mem_Cost":0.00064714272816976,"App_Cost":0.054166666666667},{"EndDate":"2020\/07\/01","GPU_Hours":0,"App":"Abaqus","JobName":"cubevnc","JobId":"2827","Queue":"q_x86_expr","Cluster":"aip","CPU_Hours":6.3075,"User":"simforgetest2","Mem_GB_Hours":3.301533908844,"runTime":6.3075,"JobDescription":"abatest01","GPU_Cost":0,"CPU_Cost":3.15375,"Mem_Cost":0.3301533908844,"App_Cost":31.5375},{"EndDate":"2020\/07\/01","GPU_Hours":0,"App":"Abaqus2017","JobName":"Job-172621","JobId":"2894","Queue":"q_x86_expr","Cluster":"aip","CPU_Hours":0.3425,"User":"simforgetest2","Mem_GB_Hours":0.00437819480896,"runTime":0.3425,"JobDescription":"Job-172621-qiuxiao","GPU_Cost":0,"CPU_Cost":0.17125,"Mem_Cost":0.000437819480896,"App_Cost":1.7125},{"EndDate":"2020\/07\/01","GPU_Hours":0,"App":"Fluent","JobName":"cubevnc","JobId":"2902","Queue":"q_x86_expr","Cluster":"aip","CPU_Hours":0.0052777777777778,"User":"simforgetest2","Mem_GB_Hours":0.0003354983859592,"runTime":0.0052777777777778,"JobDescription":"flu1","GPU_Cost":0,"CPU_Cost":0.0026388888888889,"Mem_Cost":3.354983859592e-5,"App_Cost":0.026388888888889},{"EndDate":"2020\/07\/01","GPU_Hours":0,"App":"Fluent","JobName":"cubevnc","JobId":"2903","Queue":"q_x86_share","Cluster":"aip","CPU_Hours":0.015277777777778,"User":"simforgetest2","Mem_GB_Hours":8.0927742852105e-5,"runTime":0.0030555555555556,"JobDescription":"flu2","GPU_Cost":0,"CPU_Cost":0.0076388888888889,"Mem_Cost":8.0927742852105e-6,"App_Cost":0.076388888888889},{"EndDate":"2020\/07\/02","GPU_Hours":0,"App":"TankSim","JobName":"cubevnc","JobId":"2917","Queue":"q_x86_expr","Cluster":"aip","CPU_Hours":0.017777777777778,"User":"simforgetest2","Mem_GB_Hours":0.0020219590928819,"runTime":0.017777777777778,"JobDescription":"tanklaunch","GPU_Cost":0,"CPU_Cost":0.0088888888888889,"Mem_Cost":0.00020219590928819,"App_Cost":0.017777777777778},{"EndDate":"2020\/07\/02","GPU_Hours":0,"App":"TankSim","JobName":"cubevnc","JobId":"2918","Queue":"q_x86_expr","Cluster":"aip","CPU_Hours":0.012222222222222,"User":"simforgetest2","Mem_GB_Hours":0.0019848336113824,"runTime":0.012222222222222,"JobDescription":"tanktest02","GPU_Cost":0,"CPU_Cost":0.0061111111111111,"Mem_Cost":0.00019848336113824,"App_Cost":0.012222222222222},{"EndDate":"2020\/07\/02","GPU_Hours":0,"App":"Fluent","JobName":"cubevnc","JobId":"2942","Queue":"q_x86_expr","Cluster":"aip","CPU_Hours":0.0086111111111111,"User":"simforgetest2","Mem_GB_Hours":0.00061207135518392,"runTime":0.0086111111111111,"JobDescription":"fluent_test","GPU_Cost":0,"CPU_Cost":0.0043055555555556,"Mem_Cost":6.1207135518392e-5,"App_Cost":0.043055555555556},{"EndDate":"2020\/07\/02","GPU_Hours":0,"App":"Abaqus","JobName":"cubevnc","JobId":"2893","Queue":"q_x86_expr","Cluster":"aip","CPU_Hours":23.3475,"User":"simforgetest2","Mem_GB_Hours":12.272346754074,"runTime":23.3475,"JobDescription":"abaqus1core","GPU_Cost":0,"CPU_Cost":11.67375,"Mem_Cost":1.2272346754074,"App_Cost":116.7375},{"EndDate":"2020\/07\/02","GPU_Hours":0,"App":"Abaqus","JobName":"cubevnc","JobId":"2848","Queue":"q_x86_expr","Cluster":"aip","CPU_Hours":29.159166666667,"User":"simforgetest2","Mem_GB_Hours":16.11059975942,"runTime":29.159166666667,"JobDescription":"abatest04","GPU_Cost":0,"CPU_Cost":14.579583333333,"Mem_Cost":1.611059975942,"App_Cost":145.79583333333},{"EndDate":"2020\/07\/02","GPU_Hours":0,"App":"Abaqus","JobName":"cubevnc","JobId":"2832","Queue":"q_x86_expr","Cluster":"aip","CPU_Hours":29.56,"User":"simforgetest2","Mem_GB_Hours":14.718206176758,"runTime":29.56,"JobDescription":"abaplugin","GPU_Cost":0,"CPU_Cost":14.78,"Mem_Cost":1.4718206176758,"App_Cost":147.8},{"EndDate":"2020\/07\/02","GPU_Hours":0,"App":"Fluent","JobName":"cubevnc","JobId":"2959","Queue":"q_x86_share","Cluster":"aip","CPU_Hours":0.0027777777777778,"User":"simforgetest2","Mem_GB_Hours":0.00011184480455187,"runTime":0.0027777777777778,"JobDescription":"flu1","GPU_Cost":0,"CPU_Cost":0.0013888888888889,"Mem_Cost":1.1184480455187e-5,"App_Cost":0.013888888888889},{"EndDate":"2020\/07\/02","GPU_Hours":0,"App":"Fluent","JobName":"cubevnc","JobId":"2960","Queue":"q_x86_share","Cluster":"aip","CPU_Hours":0.0027777777777778,"User":"simforgetest2","Mem_GB_Hours":7.3549482557509e-5,"runTime":0.0027777777777778,"JobDescription":"flu3","GPU_Cost":0,"CPU_Cost":0.0013888888888889,"Mem_Cost":7.3549482557509e-6,"App_Cost":0.013888888888889},{"EndDate":"2020\/07\/03","GPU_Hours":0,"App":"Abaqus","JobName":"cubevnc","JobId":"2988","Queue":"q_x86_expr","Cluster":"aip","CPU_Hours":4.8391666666667,"User":"simforgetest2","Mem_GB_Hours":2.345909649531,"runTime":4.8391666666667,"JobDescription":"nomminmax01","GPU_Cost":0,"CPU_Cost":2.4195833333333,"Mem_Cost":0.2345909649531,"App_Cost":24.195833333333},{"EndDate":"2020\/07\/07","GPU_Hours":0,"App":"ParaView","JobName":"cubevnc","JobId":"3266","Queue":"q_x86_expr","Cluster":"aip","CPU_Hours":1.0016666666667,"User":"simforgetest2","Mem_GB_Hours":0.93372448603312,"runTime":1.0016666666667,"JobDescription":"pv02","GPU_Cost":0,"CPU_Cost":0.50083333333333,"Mem_Cost":0.093372448603312,"App_Cost":0.50083333333333},{"EndDate":"2020\/07\/07","GPU_Hours":0,"App":"Fluent","JobName":"cubevnc","JobId":"3301","Queue":"q_x86_expr","Cluster":"aip","CPU_Hours":0.54444444444444,"User":"simforgetest2","Mem_GB_Hours":0.049706225925022,"runTime":0.54444444444444,"JobDescription":"fluent_test","GPU_Cost":0,"CPU_Cost":0.27222222222222,"Mem_Cost":0.0049706225925022,"App_Cost":2.7222222222222},{"EndDate":"2020\/07\/07","GPU_Hours":0,"App":"Fluent","JobName":"cubevnc","JobId":"3303","Queue":"q_x86_expr","Cluster":"aip","CPU_Hours":0.11694444444444,"User":"simforgetest2","Mem_GB_Hours":0.010493344200982,"runTime":0.11694444444444,"JobDescription":"fluent_test","GPU_Cost":0,"CPU_Cost":0.058472222222222,"Mem_Cost":0.0010493344200982,"App_Cost":0.58472222222222},{"EndDate":"2020\/07\/09","GPU_Hours":0,"App":"ParaView","JobName":"cubevnc","JobId":"3288","Queue":"q_x86_expr","Cluster":"aip","CPU_Hours":53.6475,"User":"simforgetest2","Mem_GB_Hours":27.106984176636,"runTime":53.6475,"JobDescription":"pv02","GPU_Cost":0,"CPU_Cost":26.82375,"Mem_Cost":2.7106984176636,"App_Cost":26.82375},{"EndDate":"2020\/07\/10","GPU_Hours":0,"App":"Abaqus2017","JobName":"Job-105204","JobId":"3486","Queue":"q_x86_expr","Cluster":"aip","CPU_Hours":0.0083333333333333,"User":"simforgetest2","Mem_GB_Hours":4.9304962158203e-5,"runTime":0.0041666666666667,"JobDescription":"Job-105204-explicit","GPU_Cost":0,"CPU_Cost":0.0041666666666667,"Mem_Cost":4.9304962158203e-6,"App_Cost":0.041666666666667},{"EndDate":"2020\/07\/10","GPU_Hours":0,"App":"Abaqus2017","JobName":"Job-105447","JobId":"3487","Queue":"q_x86_expr","Cluster":"aip","CPU_Hours":0.1,"User":"simforgetest2","Mem_GB_Hours":0.00059165954589844,"runTime":0.05,"JobDescription":"Job-105447-explicit","GPU_Cost":0,"CPU_Cost":0.05,"Mem_Cost":5.9165954589844e-5,"App_Cost":0.5},{"EndDate":"2020\/07\/10","GPU_Hours":0,"App":"Abaqus2017","JobName":"Job-103624","JobId":"3480","Queue":"q_x86_expr","Cluster":"aip","CPU_Hours":3.9788888888889,"User":"simforgetest2","Mem_GB_Hours":0.011774532530043,"runTime":0.99472222222222,"JobDescription":"Job-103624-Model-1","GPU_Cost":0,"CPU_Cost":1.9894444444444,"Mem_Cost":0.0011774532530043,"App_Cost":19.894444444444},{"EndDate":"2020\/07\/10","GPU_Hours":0,"App":"LS-DYNA","JobName":"\/home\/export\/online1\/simforgetest2\/TestData\/TestData\/lsdyna\/Caravan-V03c-2400k-main-shell16-10ms.k","JobId":"3481","Queue":"q_x86_expr","Cluster":"aip","CPU_Hours":23.7,"User":"simforgetest2","Mem_GB_Hours":0.010833930969238,"runTime":0.9875,"JobDescription":"Caravan-V03c-2400k-main-shell16-10ms.k","GPU_Cost":0,"CPU_Cost":11.85,"Mem_Cost":0.0010833930969238,"App_Cost":118.5},{"EndDate":"2020\/07\/10","GPU_Hours":0,"App":"Abaqus","JobName":"cubevnc","JobId":"3468","Queue":"q_x86_expr","Cluster":"aip","CPU_Hours":7.0355555555556,"User":"simforgetest2","Mem_GB_Hours":4.4001207817925,"runTime":7.0355555555556,"JobDescription":"abaqus1core","GPU_Cost":0,"CPU_Cost":3.5177777777778,"Mem_Cost":0.44001207817925,"App_Cost":35.177777777778},{"EndDate":"2020\/07\/10","GPU_Hours":0,"App":"Abaqus","JobName":"cubevnc","JobId":"3484","Queue":"q_x86_expr","Cluster":"aip","CPU_Hours":6.5380555555556,"User":"simforgetest2","Mem_GB_Hours":3.6690766482883,"runTime":6.5380555555556,"JobDescription":"abaplugin","GPU_Cost":0,"CPU_Cost":3.2690277777778,"Mem_Cost":0.36690766482883,"App_Cost":32.690277777778},{"EndDate":"2020\/07\/10","GPU_Hours":0,"App":"LSPrePost","JobName":"cubevnc","JobId":"3446","Queue":"q_x86_expr","Cluster":"aip","CPU_Hours":8.3905555555556,"User":"simforgetest2","Mem_GB_Hours":12.058799001906,"runTime":8.3905555555556,"JobDescription":"display02","GPU_Cost":0,"CPU_Cost":4.1952777777778,"Mem_Cost":1.2058799001906,"App_Cost":0},{"EndDate":"2020\/07\/10","GPU_Hours":0,"App":"TankSim","JobName":"cubevnc","JobId":"3466","Queue":"q_x86_expr","Cluster":"aip","CPU_Hours":7.1141666666667,"User":"simforgetest2","Mem_GB_Hours":1.3759978961945,"runTime":7.1141666666667,"JobDescription":"tannew01","GPU_Cost":0,"CPU_Cost":3.5570833333333,"Mem_Cost":0.13759978961945,"App_Cost":7.1141666666667},{"EndDate":"2020\/07\/10","GPU_Hours":0,"App":"TankSim","JobName":"cubevnc","JobId":"3524","Queue":"q_x86_expr","Cluster":"aip","CPU_Hours":2.7302777777778,"User":"simforgetest2","Mem_GB_Hours":0.49138834211561,"runTime":2.7302777777778,"JobDescription":"tantest01","GPU_Cost":0,"CPU_Cost":1.3651388888889,"Mem_Cost":0.049138834211561,"App_Cost":2.7302777777778},{"EndDate":"2020\/07\/10","GPU_Hours":0,"App":"ICEM-CFD","JobName":"cubevnc","JobId":"3463","Queue":"q_x86_expr","Cluster":"aip","CPU_Hours":7.1794444444444,"User":"simforgetest2","Mem_GB_Hours":1.8222759056091,"runTime":7.1794444444444,"JobDescription":"ICEMtest","GPU_Cost":0,"CPU_Cost":3.5897222222222,"Mem_Cost":0.18222759056091,"App_Cost":35.897222222222},{"EndDate":"2020\/07\/10","GPU_Hours":0,"App":"ParaView","JobName":"cubevnc","JobId":"3474","Queue":"q_x86_expr","Cluster":"aip","CPU_Hours":6.8947222222222,"User":"simforgetest2","Mem_GB_Hours":3.3457855754428,"runTime":6.8947222222222,"JobDescription":"newpv02","GPU_Cost":0,"CPU_Cost":3.4473611111111,"Mem_Cost":0.33457855754428,"App_Cost":3.4473611111111},{"EndDate":"2020\/07\/10","GPU_Hours":0,"App":"ParaView","JobName":"cubevnc","JobId":"3451","Queue":"q_x86_expr","Cluster":"aip","CPU_Hours":8.28,"User":"simforgetest2","Mem_GB_Hours":7.7679011535645,"runTime":8.28,"JobDescription":"pv02","GPU_Cost":0,"CPU_Cost":4.14,"Mem_Cost":0.77679011535645,"App_Cost":4.14},{"EndDate":"2020\/07\/10","GPU_Hours":0,"App":"ParaView","JobName":"cubevnc","JobId":"3453","Queue":"q_x86_expr","Cluster":"aip","CPU_Hours":8.2361111111111,"User":"simforgetest2","Mem_GB_Hours":2.9264862272474,"runTime":8.2361111111111,"JobDescription":"newpvtest","GPU_Cost":0,"CPU_Cost":4.1180555555556,"Mem_Cost":0.29264862272475,"App_Cost":4.1180555555556},{"EndDate":"2020\/07\/14","GPU_Hours":0,"App":"Fluent","JobName":"cubevnc","JobId":"4196","Queue":"q_x86_expr","Cluster":"aip","CPU_Hours":4.0177777777778,"User":"simforgetest2","Mem_GB_Hours":0.076832275390625,"runTime":1.0044444444444,"JobDescription":"rh_test1","GPU_Cost":0,"CPU_Cost":2.0088888888889,"Mem_Cost":0.0076832275390625,"App_Cost":20.088888888889},{"EndDate":"2020\/07\/14","GPU_Hours":0,"App":"ICEM-CFD","JobName":"cubevnc","JobId":"4210","Queue":"local","Cluster":"aip","CPU_Hours":0.44527777777778,"User":"simforgetest2","Mem_GB_Hours":0.11591925303141,"runTime":0.44527777777778,"JobDescription":"icem1","GPU_Cost":0,"CPU_Cost":0.22263888888889,"Mem_Cost":0.011591925303141,"App_Cost":2.2263888888889},{"EndDate":"2020\/07\/14","GPU_Hours":0,"App":"ICEM-CFD","JobName":"cubevnc","JobId":"4215","Queue":"local","Cluster":"aip","CPU_Hours":0.42,"User":"simforgetest2","Mem_GB_Hours":0.094226989746094,"runTime":0.42,"JobDescription":"icem1","GPU_Cost":0,"CPU_Cost":0.21,"Mem_Cost":0.0094226989746094,"App_Cost":2.1},{"EndDate":"2020\/07\/14","GPU_Hours":0,"App":"ICEM-CFD","JobName":"cubevnc","JobId":"4213","Queue":"local","Cluster":"aip","CPU_Hours":0.66611111111111,"User":"simforgetest2","Mem_GB_Hours":0.31994901445177,"runTime":0.66611111111111,"JobDescription":"icemtest01","GPU_Cost":0,"CPU_Cost":0.33305555555556,"Mem_Cost":0.031994901445177,"App_Cost":3.3305555555556},{"EndDate":"2020\/07\/14","GPU_Hours":0,"App":"LSPrePost","JobName":"cubevnc","JobId":"4059","Queue":"local","Cluster":"aip","CPU_Hours":32.610833333333,"User":"simforgetest2","Mem_GB_Hours":10.128187586466,"runTime":32.610833333333,"JobDescription":"test03","GPU_Cost":0,"CPU_Cost":16.305416666667,"Mem_Cost":1.0128187586466,"App_Cost":0},{"EndDate":"2020\/07\/14","GPU_Hours":0,"App":"ParaView","JobName":"cubevnc","JobId":"4217","Queue":"local","Cluster":"aip","CPU_Hours":0.021666666666667,"User":"simforgetest2","Mem_GB_Hours":0.0070695368448893,"runTime":0.021666666666667,"JobDescription":"test04","GPU_Cost":0,"CPU_Cost":0.010833333333333,"Mem_Cost":0.00070695368448893,"App_Cost":0.010833333333333},{"EndDate":"2020\/07\/14","GPU_Hours":0,"App":"ParaView","JobName":"cubevnc","JobId":"4060","Queue":"local","Cluster":"aip","CPU_Hours":32.135277777778,"User":"simforgetest2","Mem_GB_Hours":13.353331788381,"runTime":32.135277777778,"JobDescription":"newpvtest01","GPU_Cost":0,"CPU_Cost":16.067638888889,"Mem_Cost":1.3353331788381,"App_Cost":16.067638888889},{"EndDate":"2020\/07\/14","GPU_Hours":0,"App":"ParaView","JobName":"cubevnc","JobId":"4216","Queue":"q_x86_expr","Cluster":"aip","CPU_Hours":0.035,"User":"simforgetest2","Mem_GB_Hours":0.0046453666687012,"runTime":0.035,"JobDescription":"newpv02","GPU_Cost":0,"CPU_Cost":0.0175,"Mem_Cost":0.00046453666687012,"App_Cost":0.0175},{"EndDate":"2020\/07\/15","GPU_Hours":0,"App":"ParaView","JobName":"cubevnc","JobId":"4218","Queue":"local","Cluster":"aip","CPU_Hours":13.510277777778,"User":"simforgetest2","Mem_GB_Hours":5.8758555592431,"runTime":13.510277777778,"JobDescription":"test05","GPU_Cost":0,"CPU_Cost":6.7551388888889,"Mem_Cost":0.58758555592431,"App_Cost":6.7551388888889},{"EndDate":"2020\/07\/15","GPU_Hours":0,"App":"ParaView","JobName":"cubevnc","JobId":"4233","Queue":"local","Cluster":"aip","CPU_Hours":3.3872222222222,"User":"simforgetest2","Mem_GB_Hours":1.3505783674452,"runTime":3.3872222222222,"JobDescription":"pvnew01","GPU_Cost":0,"CPU_Cost":1.6936111111111,"Mem_Cost":0.13505783674452,"App_Cost":1.6936111111111},{"EndDate":"2020\/07\/15","GPU_Hours":0,"App":"TankSim","JobName":"cubevnc","JobId":"4255","Queue":"local","Cluster":"aip","CPU_Hours":0.086666666666667,"User":"simforgetest2","Mem_GB_Hours":0.01526247660319,"runTime":0.086666666666667,"JobDescription":"betatest01","GPU_Cost":0,"CPU_Cost":0.043333333333333,"Mem_Cost":0.001526247660319,"App_Cost":0.086666666666667},{"EndDate":"2020\/07\/15","GPU_Hours":0,"App":"Tanksimulator-Calculix","JobName":"","JobId":"4257","Queue":"local","Cluster":"aip","CPU_Hours":0.01,"User":"simforgetest2","Mem_GB_Hours":8.6288452148438e-5,"runTime":0.01,"JobDescription":"testmonpoint","GPU_Cost":0,"CPU_Cost":0.005,"Mem_Cost":8.6288452148438e-6,"App_Cost":0},{"EndDate":"2020\/07\/15","GPU_Hours":0,"App":"Tanksimulator-Openfoam","JobName":"","JobId":"4258","Queue":"local","Cluster":"aip","CPU_Hours":0.018611111111111,"User":"simforgetest2","Mem_GB_Hours":0.00019814915127224,"runTime":0.018611111111111,"JobDescription":"testmonpoint","GPU_Cost":0,"CPU_Cost":0.0093055555555556,"Mem_Cost":1.9814915127224e-5,"App_Cost":0},{"EndDate":"2020\/07\/15","GPU_Hours":0,"App":"Tanksimulator-Calculix","JobName":"","JobId":"4262","Queue":"local","Cluster":"aip","CPU_Hours":0.068333333333333,"User":"simforgetest2","Mem_GB_Hours":0.0006889533996582,"runTime":0.068333333333333,"JobDescription":"testmonpoint","GPU_Cost":0,"CPU_Cost":0.034166666666667,"Mem_Cost":6.889533996582e-5,"App_Cost":0},{"EndDate":"2020\/07\/15","GPU_Hours":0,"App":"Tanksimulator-Openfoam","JobName":"","JobId":"4261","Queue":"local","Cluster":"aip","CPU_Hours":0.068611111111111,"User":"simforgetest2","Mem_GB_Hours":0.00079932530721029,"runTime":0.068611111111111,"JobDescription":"testmonpoint","GPU_Cost":0,"CPU_Cost":0.034305555555556,"Mem_Cost":7.9932530721029e-5,"App_Cost":0},{"EndDate":"2020\/07\/15","GPU_Hours":0,"App":"StarCCM","JobName":"cubevnc","JobId":"4264","Queue":"local","Cluster":"aip","CPU_Hours":0.57333333333333,"User":"simforgetest2","Mem_GB_Hours":0.042954143948025,"runTime":0.047777777777778,"JobDescription":"starccm_test_5","GPU_Cost":0,"CPU_Cost":0.28666666666667,"Mem_Cost":0.0042954143948025,"App_Cost":2.8666666666667},{"EndDate":"2020\/07\/15","GPU_Hours":0,"App":"TankSim","JobName":"cubevnc","JobId":"4256","Queue":"local","Cluster":"aip","CPU_Hours":0.905,"User":"simforgetest2","Mem_GB_Hours":0.19194103240967,"runTime":0.905,"JobDescription":"betatest01","GPU_Cost":0,"CPU_Cost":0.4525,"Mem_Cost":0.019194103240967,"App_Cost":0.905},{"EndDate":"2020\/07\/15","GPU_Hours":0,"App":"TankSim","JobName":"cubevnc","JobId":"4275","Queue":"local","Cluster":"aip","CPU_Hours":0.11583333333333,"User":"simforgetest2","Mem_GB_Hours":0.019191700617472,"runTime":0.11583333333333,"JobDescription":"betatest01","GPU_Cost":0,"CPU_Cost":0.057916666666667,"Mem_Cost":0.0019191700617472,"App_Cost":0.11583333333333},{"EndDate":"2020\/07\/15","GPU_Hours":0,"App":"TankSim","JobName":"cubevnc","JobId":"4277","Queue":"local","Cluster":"aip","CPU_Hours":0.64611111111111,"User":"simforgetest2","Mem_GB_Hours":0.1106806394789,"runTime":0.64611111111111,"JobDescription":"betatest01","GPU_Cost":0,"CPU_Cost":0.32305555555556,"Mem_Cost":0.01106806394789,"App_Cost":0.64611111111111},{"EndDate":"2020\/07\/15","GPU_Hours":0,"App":"TankSim","JobName":"cubevnc","JobId":"4278","Queue":"local","Cluster":"aip","CPU_Hours":2.3277777777778,"User":"simforgetest2","Mem_GB_Hours":0.45291254255507,"runTime":2.3277777777778,"JobDescription":"betatest01","GPU_Cost":0,"CPU_Cost":1.1638888888889,"Mem_Cost":0.045291254255507,"App_Cost":2.3277777777778},{"EndDate":"2020\/07\/15","GPU_Hours":0,"App":"ICEM-CFD","JobName":"cubevnc","JobId":"4325","Queue":"local","Cluster":"aip","CPU_Hours":0.14,"User":"simforgetest2","Mem_GB_Hours":0.028363265991211,"runTime":0.14,"JobDescription":"ICEM1","GPU_Cost":0,"CPU_Cost":0.07,"Mem_Cost":0.0028363265991211,"App_Cost":0.7},{"EndDate":"2020\/07\/15","GPU_Hours":0,"App":"Fluent","JobName":"cubevnc","JobId":"4327","Queue":"q_x86_share","Cluster":"aip","CPU_Hours":0.043055555555556,"User":"simforgetest2","Mem_GB_Hours":0.0011805852254232,"runTime":0.043055555555556,"JobDescription":"fluent_test_8","GPU_Cost":0,"CPU_Cost":0.021527777777778,"Mem_Cost":0.00011805852254232,"App_Cost":0.21527777777778},{"EndDate":"2020\/07\/15","GPU_Hours":0,"App":"ICEM-CFD","JobName":"cubevnc","JobId":"4329","Queue":"local","Cluster":"aip","CPU_Hours":0.039444444444444,"User":"simforgetest2","Mem_GB_Hours":0.0081969282362196,"runTime":0.039444444444444,"JobDescription":"icem1","GPU_Cost":0,"CPU_Cost":0.019722222222222,"Mem_Cost":0.00081969282362196,"App_Cost":0.19722222222222},{"EndDate":"2020\/07\/16","GPU_Hours":0,"App":"TankSim","JobName":"cubevnc","JobId":"4474","Queue":"local","Cluster":"aip","CPU_Hours":1.4486111111111,"User":"simforgetest2","Mem_GB_Hours":0.30942908922831,"runTime":1.4486111111111,"JobDescription":"betatest01","GPU_Cost":0,"CPU_Cost":0.72430555555556,"Mem_Cost":0.030942908922831,"App_Cost":1.4486111111111},{"EndDate":"2020\/07\/16","GPU_Hours":0,"App":"TankSim","JobName":"cubevnc","JobId":"4493","Queue":"local","Cluster":"aip","CPU_Hours":0.27166666666667,"User":"simforgetest2","Mem_GB_Hours":0.053608112335205,"runTime":0.27166666666667,"JobDescription":"betatest01","GPU_Cost":0,"CPU_Cost":0.13583333333333,"Mem_Cost":0.0053608112335205,"App_Cost":0.27166666666667},{"EndDate":"2020\/07\/16","GPU_Hours":0,"App":"TankSim","JobName":"cubevnc","JobId":"4495","Queue":"local","Cluster":"aip","CPU_Hours":0.18361111111111,"User":"simforgetest2","Mem_GB_Hours":0.031877551608615,"runTime":0.18361111111111,"JobDescription":"betatest01","GPU_Cost":0,"CPU_Cost":0.091805555555556,"Mem_Cost":0.0031877551608615,"App_Cost":0.18361111111111},{"EndDate":"2020\/07\/16","GPU_Hours":0,"App":"TankSim","JobName":"cubevnc","JobId":"4496","Queue":"local","Cluster":"aip","CPU_Hours":0.27111111111111,"User":"simforgetest2","Mem_GB_Hours":0.050931582980686,"runTime":0.27111111111111,"JobDescription":"maxsalome01","GPU_Cost":0,"CPU_Cost":0.13555555555556,"Mem_Cost":0.0050931582980686,"App_Cost":0.27111111111111},{"EndDate":"2020\/07\/16","GPU_Hours":0,"App":"TankSim","JobName":"cubevnc","JobId":"4497","Queue":"local","Cluster":"aip","CPU_Hours":0.25,"User":"simforgetest2","Mem_GB_Hours":0.043442726135254,"runTime":0.25,"JobDescription":"betatest01","GPU_Cost":0,"CPU_Cost":0.125,"Mem_Cost":0.0043442726135254,"App_Cost":0.25},{"EndDate":"2020\/07\/16","GPU_Hours":0,"App":"TankSim","JobName":"cubevnc","JobId":"4494","Queue":"local","Cluster":"aip","CPU_Hours":0.53722222222222,"User":"simforgetest2","Mem_GB_Hours":0.09365894317627,"runTime":0.53722222222222,"JobDescription":"betatank02","GPU_Cost":0,"CPU_Cost":0.26861111111111,"Mem_Cost":0.009365894317627,"App_Cost":0.53722222222222},{"EndDate":"2020\/07\/16","GPU_Hours":0,"App":"ICEM-CFD","JobName":"cubevnc","JobId":"4333","Queue":"local","Cluster":"aip","CPU_Hours":14.190277777778,"User":"simforgetest2","Mem_GB_Hours":3.1779046535492,"runTime":14.190277777778,"JobDescription":"test1","GPU_Cost":0,"CPU_Cost":7.0951388888889,"Mem_Cost":0.31779046535492,"App_Cost":70.951388888889},{"EndDate":"2020\/07\/16","GPU_Hours":0,"App":"LSPrePost","JobName":"cubevnc","JobId":"4276","Queue":"local","Cluster":"aip","CPU_Hours":22.146944444444,"User":"simforgetest2","Mem_GB_Hours":27.45650337961,"runTime":22.146944444444,"JobDescription":"test02","GPU_Cost":0,"CPU_Cost":11.073472222222,"Mem_Cost":2.745650337961,"App_Cost":0},{"EndDate":"2020\/07\/16","GPU_Hours":0,"App":"Abaqus","JobName":"cubevnc","JobId":"4499","Queue":"local","Cluster":"aip","CPU_Hours":0.57166666666667,"User":"simforgetest2","Mem_GB_Hours":0.27894002914429,"runTime":0.57166666666667,"JobDescription":"abaqusbeta02","GPU_Cost":0,"CPU_Cost":0.28583333333333,"Mem_Cost":0.027894002914429,"App_Cost":2.8583333333333},{"EndDate":"2020\/07\/16","GPU_Hours":0,"App":"TankSim","JobName":"cubevnc","JobId":"4502","Queue":"local","Cluster":"aip","CPU_Hours":0.34055555555556,"User":"simforgetest2","Mem_GB_Hours":0.059356625874837,"runTime":0.34055555555556,"JobDescription":"salometritest02","GPU_Cost":0,"CPU_Cost":0.17027777777778,"Mem_Cost":0.0059356625874837,"App_Cost":0.34055555555556},{"EndDate":"2020\/07\/16","GPU_Hours":0,"App":"TankSim","JobName":"cubevnc","JobId":"4500","Queue":"local","Cluster":"aip","CPU_Hours":0.40611111111111,"User":"simforgetest2","Mem_GB_Hours":0.068609019385444,"runTime":0.40611111111111,"JobDescription":"maxsalome01","GPU_Cost":0,"CPU_Cost":0.20305555555556,"Mem_Cost":0.0068609019385444,"App_Cost":0.40611111111111},{"EndDate":"2020\/07\/16","GPU_Hours":0,"App":"Abaqus","JobName":"cubevnc","JobId":"4492","Queue":"local","Cluster":"aip","CPU_Hours":1.3497222222222,"User":"simforgetest2","Mem_GB_Hours":0.65882265620761,"runTime":1.3497222222222,"JobDescription":"betatestaba01","GPU_Cost":0,"CPU_Cost":0.67486111111111,"Mem_Cost":0.065882265620761,"App_Cost":6.7486111111111},{"EndDate":"2020\/07\/16","GPU_Hours":0,"App":"Fluent","JobName":"cubevnc","JobId":"4517","Queue":"q_x86_expr","Cluster":"aip","CPU_Hours":7.9288888888889,"User":"simforgetest2","Mem_GB_Hours":0.078973117404514,"runTime":0.99111111111111,"JobDescription":"flutest01","GPU_Cost":0,"CPU_Cost":3.9644444444444,"Mem_Cost":0.0078973117404514,"App_Cost":39.644444444444},{"EndDate":"2020\/07\/16","GPU_Hours":0,"App":"ParaView","JobName":"cubevnc","JobId":"4514","Queue":"local","Cluster":"aip","CPU_Hours":2.1561111111111,"User":"simforgetest2","Mem_GB_Hours":0.98351020177205,"runTime":2.1561111111111,"JobDescription":"paraviewbeta","GPU_Cost":0,"CPU_Cost":1.0780555555556,"Mem_Cost":0.098351020177205,"App_Cost":1.0780555555556},{"EndDate":"2020\/07\/16","GPU_Hours":0,"App":"ParaView","JobName":"cubevnc","JobId":"4512","Queue":"q_x86_expr","Cluster":"aip","CPU_Hours":2.165,"User":"simforgetest2","Mem_GB_Hours":0.27337518692017,"runTime":2.165,"JobDescription":"pv02","GPU_Cost":0,"CPU_Cost":1.0825,"Mem_Cost":0.027337518692017,"App_Cost":1.0825},{"EndDate":"2020\/07\/16","GPU_Hours":0,"App":"Tanksimulator-MeshGenerate","JobName":"","JobId":"4570","Queue":"local","Cluster":"aip","CPU_Hours":0.043888888888889,"User":"simforgetest2","Mem_GB_Hours":0.011163084242079,"runTime":0.043888888888889,"JobDescription":"Cylinder01","GPU_Cost":0,"CPU_Cost":0.021944444444444,"Mem_Cost":0.0011163084242079,"App_Cost":0},{"EndDate":"2020\/07\/16","GPU_Hours":0,"App":"Tanksimulator-MeshGenerate","JobName":"","JobId":"4572","Queue":"local","Cluster":"aip","CPU_Hours":0.0525,"User":"simforgetest2","Mem_GB_Hours":0.039015111923218,"runTime":0.0525,"JobDescription":"Cylinder01","GPU_Cost":0,"CPU_Cost":0.02625,"Mem_Cost":0.0039015111923218,"App_Cost":0},{"EndDate":"2020\/07\/16","GPU_Hours":0,"App":"Tanksimulator-Openfoam","JobName":"","JobId":"4573","Queue":"local","Cluster":"aip","CPU_Hours":0.0083333333333333,"User":"simforgetest2","Mem_GB_Hours":8.9899698893229e-5,"runTime":0.0083333333333333,"JobDescription":"Cylinder01","GPU_Cost":0,"CPU_Cost":0.0041666666666667,"Mem_Cost":8.9899698893229e-6,"App_Cost":0},{"EndDate":"2020\/07\/16","GPU_Hours":0,"App":"Tanksimulator-Calculix","JobName":"","JobId":"4574","Queue":"local","Cluster":"aip","CPU_Hours":0.028333333333333,"User":"simforgetest2","Mem_GB_Hours":0.00032576243082682,"runTime":0.028333333333333,"JobDescription":"Cylinder01","GPU_Cost":0,"CPU_Cost":0.014166666666667,"Mem_Cost":3.2576243082682e-5,"App_Cost":0},{"EndDate":"2020\/07\/16","GPU_Hours":0,"App":"Tanksimulator-MeshGenerate","JobName":"","JobId":"4576","Queue":"local","Cluster":"aip","CPU_Hours":0.011111111111111,"User":"simforgetest2","Mem_GB_Hours":0.0033766852484809,"runTime":0.011111111111111,"JobDescription":"Cylinder01","GPU_Cost":0,"CPU_Cost":0.0055555555555556,"Mem_Cost":0.00033766852484809,"App_Cost":0},{"EndDate":"2020\/07\/16","GPU_Hours":0,"App":"Tanksimulator-MeshGenerate","JobName":"","JobId":"4577","Queue":"local","Cluster":"aip","CPU_Hours":0.015555555555556,"User":"simforgetest2","Mem_GB_Hours":0.0046620856391059,"runTime":0.015555555555556,"JobDescription":"Cylinder01","GPU_Cost":0,"CPU_Cost":0.0077777777777778,"Mem_Cost":0.00046620856391059,"App_Cost":0},{"EndDate":"2020\/07\/16","GPU_Hours":0,"App":"Tanksimulator-MeshGenerate","JobName":"","JobId":"4580","Queue":"local","Cluster":"aip","CPU_Hours":0.01,"User":"simforgetest2","Mem_GB_Hours":0.0023147964477539,"runTime":0.01,"JobDescription":"Cylinder01","GPU_Cost":0,"CPU_Cost":0.005,"Mem_Cost":0.00023147964477539,"App_Cost":0},{"EndDate":"2020\/07\/16","GPU_Hours":0,"App":"Tanksimulator-MeshGenerate","JobName":"","JobId":"4581","Queue":"local","Cluster":"aip","CPU_Hours":0.011944444444444,"User":"simforgetest2","Mem_GB_Hours":0.0036299822065565,"runTime":0.011944444444444,"JobDescription":"Cylinder01","GPU_Cost":0,"CPU_Cost":0.0059722222222222,"Mem_Cost":0.00036299822065565,"App_Cost":0},{"EndDate":"2020\/07\/16","GPU_Hours":0,"App":"Tanksimulator-MeshGenerate","JobName":"","JobId":"4584","Queue":"local","Cluster":"aip","CPU_Hours":0.036666666666667,"User":"simforgetest2","Mem_GB_Hours":0.009336191813151,"runTime":0.036666666666667,"JobDescription":"Cylinder01","GPU_Cost":0,"CPU_Cost":0.018333333333333,"Mem_Cost":0.0009336191813151,"App_Cost":0},{"EndDate":"2020\/07\/16","GPU_Hours":0,"App":"Abaqus","JobName":"cubevnc","JobId":"4586","Queue":"local","Cluster":"aip","CPU_Hours":0.095,"User":"simforgetest2","Mem_GB_Hours":0.067551021575928,"runTime":0.095,"JobDescription":"betatestaba01","GPU_Cost":0,"CPU_Cost":0.0475,"Mem_Cost":0.0067551021575928,"App_Cost":0.475},{"EndDate":"2020\/07\/16","GPU_Hours":0,"App":"Abaqus","JobName":"cubevnc","JobId":"4553","Queue":"local","Cluster":"aip","CPU_Hours":2.0066666666667,"User":"simforgetest2","Mem_GB_Hours":1.0018176778158,"runTime":2.0066666666667,"JobDescription":"newtestaba02","GPU_Cost":0,"CPU_Cost":1.0033333333333,"Mem_Cost":0.10018176778158,"App_Cost":10.033333333333},{"EndDate":"2020\/07\/16","GPU_Hours":0,"App":"ParaView","JobName":"cubevnc","JobId":"4569","Queue":"local","Cluster":"aip","CPU_Hours":1.4983333333333,"User":"simforgetest2","Mem_GB_Hours":0.88786355336507,"runTime":1.4983333333333,"JobDescription":"checkmesh01","GPU_Cost":0,"CPU_Cost":0.74916666666667,"Mem_Cost":0.088786355336507,"App_Cost":0.74916666666667},{"EndDate":"2020\/07\/16","GPU_Hours":0,"App":"Abaqus","JobName":"cubevnc","JobId":"4520","Queue":"local","Cluster":"aip","CPU_Hours":3.56,"User":"simforgetest2","Mem_GB_Hours":1.848865814209,"runTime":3.56,"JobDescription":"abaqusqiuxiao","GPU_Cost":0,"CPU_Cost":1.78,"Mem_Cost":0.1848865814209,"App_Cost":17.8},{"EndDate":"2020\/07\/16","GPU_Hours":0,"App":"Abaqus","JobName":"cubevnc","JobId":"4509","Queue":"local","Cluster":"aip","CPU_Hours":3.7169444444444,"User":"simforgetest2","Mem_GB_Hours":2.6444010003408,"runTime":3.7169444444444,"JobDescription":"carcrash","GPU_Cost":0,"CPU_Cost":1.8584722222222,"Mem_Cost":0.26444010003408,"App_Cost":18.584722222222},{"EndDate":"2020\/07\/16","GPU_Hours":0,"App":"LSPrePost","JobName":"cubevnc","JobId":"4508","Queue":"local","Cluster":"aip","CPU_Hours":3.8180555555556,"User":"simforgetest2","Mem_GB_Hours":1.0693858835432,"runTime":3.8180555555556,"JobDescription":"test02","GPU_Cost":0,"CPU_Cost":1.9090277777778,"Mem_Cost":0.10693858835432,"App_Cost":0},{"EndDate":"2020\/07\/16","GPU_Hours":0,"App":"LSPrePost","JobName":"cubevnc","JobId":"4518","Queue":"local","Cluster":"aip","CPU_Hours":3.6147222222222,"User":"simforgetest2","Mem_GB_Hours":1.8279619831509,"runTime":3.6147222222222,"JobDescription":"car2car01","GPU_Cost":0,"CPU_Cost":1.8073611111111,"Mem_Cost":0.18279619831509,"App_Cost":0},{"EndDate":"2020\/07\/16","GPU_Hours":0,"App":"Abaqus2017","JobName":"Job-162336","JobId":"4594","Queue":"local","Cluster":"aip","CPU_Hours":0.0094444444444444,"User":"simforgetest2","Mem_GB_Hours":0.0001526853773329,"runTime":0.0094444444444444,"JobDescription":"Job-162336-qiuxiao","GPU_Cost":0,"CPU_Cost":0.0047222222222222,"Mem_Cost":1.526853773329e-5,"App_Cost":0.047222222222222},{"EndDate":"2020\/07\/16","GPU_Hours":0,"App":"Tanksimulator-MeshGenerate","JobName":"","JobId":"4597","Queue":"local","Cluster":"aip","CPU_Hours":0.079444444444444,"User":"simforgetest2","Mem_GB_Hours":0.050217675103082,"runTime":0.079444444444444,"JobDescription":"testmonpoint","GPU_Cost":0,"CPU_Cost":0.039722222222222,"Mem_Cost":0.0050217675103082,"App_Cost":0},{"EndDate":"2020\/07\/16","GPU_Hours":0,"App":"Abaqus2017","JobName":"Job-162549","JobId":"4595","Queue":"local","Cluster":"aip","CPU_Hours":0.38027777777778,"User":"simforgetest2","Mem_GB_Hours":0.0061478318108453,"runTime":0.38027777777778,"JobDescription":"Job-162549-qiuxiao","GPU_Cost":0,"CPU_Cost":0.19013888888889,"Mem_Cost":0.00061478318108453,"App_Cost":1.9013888888889},{"EndDate":"2020\/07\/16","GPU_Hours":0,"App":"Abaqus","JobName":"cubevnc","JobId":"4593","Queue":"local","Cluster":"aip","CPU_Hours":0.46055555555556,"User":"simforgetest2","Mem_GB_Hours":0.25785025278727,"runTime":0.46055555555556,"JobDescription":"abaquswithoutc","GPU_Cost":0,"CPU_Cost":0.23027777777778,"Mem_Cost":0.025785025278727,"App_Cost":2.3027777777778},{"EndDate":"2020\/07\/16","GPU_Hours":0,"App":"Tanksimulator-Calculix","JobName":"","JobId":"4605","Queue":"local","Cluster":"aip","CPU_Hours":0.093055555555556,"User":"simforgetest2","Mem_GB_Hours":0.00083703994750977,"runTime":0.093055555555556,"JobDescription":"testmonpoint","GPU_Cost":0,"CPU_Cost":0.046527777777778,"Mem_Cost":8.3703994750977e-5,"App_Cost":0},{"EndDate":"2020\/07\/16","GPU_Hours":0,"App":"Abaqus","JobName":"cubevnc","JobId":"4599","Queue":"local","Cluster":"aip","CPU_Hours":0.20694444444444,"User":"simforgetest2","Mem_GB_Hours":0.10525870323181,"runTime":0.20694444444444,"JobDescription":"abaquswithoutc","GPU_Cost":0,"CPU_Cost":0.10347222222222,"Mem_Cost":0.010525870323181,"App_Cost":1.0347222222222},{"EndDate":"2020\/07\/16","GPU_Hours":0,"App":"Abaqus","JobName":"cubevnc","JobId":"4590","Queue":"local","Cluster":"aip","CPU_Hours":0.80638888888889,"User":"simforgetest2","Mem_GB_Hours":0.3948489051395,"runTime":0.80638888888889,"JobDescription":"betatestaba01","GPU_Cost":0,"CPU_Cost":0.40319444444444,"Mem_Cost":0.03948489051395,"App_Cost":4.0319444444444},{"EndDate":"2020\/07\/16","GPU_Hours":0,"App":"TankSim","JobName":"cubevnc","JobId":"4505","Queue":"local","Cluster":"aip","CPU_Hours":4.7313888888889,"User":"simforgetest2","Mem_GB_Hours":0.8838866297404,"runTime":4.7313888888889,"JobDescription":"betatank02","GPU_Cost":0,"CPU_Cost":2.3656944444444,"Mem_Cost":0.08838866297404,"App_Cost":4.7313888888889},{"EndDate":"2020\/07\/16","GPU_Hours":0,"App":"Tanksimulator-Openfoam","JobName":"","JobId":"4611","Queue":"local","Cluster":"aip","CPU_Hours":0.083611111111111,"User":"simforgetest2","Mem_GB_Hours":0.00096387015448676,"runTime":0.083611111111111,"JobDescription":"testmonpoint","GPU_Cost":0,"CPU_Cost":0.041805555555556,"Mem_Cost":9.6387015448676e-5,"App_Cost":0},{"EndDate":"2020\/07\/16","GPU_Hours":0,"App":"Tanksimulator-Calculix","JobName":"","JobId":"4610","Queue":"local","Cluster":"aip","CPU_Hours":0.11972222222222,"User":"simforgetest2","Mem_GB_Hours":0.0013299221462674,"runTime":0.11972222222222,"JobDescription":"testmonpoint","GPU_Cost":0,"CPU_Cost":0.059861111111111,"Mem_Cost":0.00013299221462674,"App_Cost":0},{"EndDate":"2020\/07\/16","GPU_Hours":0,"App":"Tanksimulator-Calculix","JobName":"","JobId":"4614","Queue":"local","Cluster":"aip","CPU_Hours":0.99361111111111,"User":"simforgetest2","Mem_GB_Hours":0.015858722262912,"runTime":0.99361111111111,"JobDescription":"testmonpoint","GPU_Cost":0,"CPU_Cost":0.49680555555556,"Mem_Cost":0.0015858722262912,"App_Cost":0},{"EndDate":"2020\/07\/16","GPU_Hours":0,"App":"Tanksimulator-Openfoam","JobName":"","JobId":"4615","Queue":"local","Cluster":"aip","CPU_Hours":0.99361111111111,"User":"simforgetest2","Mem_GB_Hours":0.011545331743028,"runTime":0.99361111111111,"JobDescription":"testmonpoint","GPU_Cost":0,"CPU_Cost":0.49680555555556,"Mem_Cost":0.0011545331743028,"App_Cost":0},{"EndDate":"2020\/07\/16","GPU_Hours":0,"App":"StarCCM","JobName":"cubevnc","JobId":"4628","Queue":"local","Cluster":"aip","CPU_Hours":0.053888888888889,"User":"simforgetest2","Mem_GB_Hours":0.021564785639445,"runTime":0.026944444444444,"JobDescription":"starccm_test2","GPU_Cost":0,"CPU_Cost":0.026944444444444,"Mem_Cost":0.0021564785639445,"App_Cost":0.26944444444444},{"EndDate":"2020\/07\/16","GPU_Hours":0,"App":"StarCCM","JobName":"cubevnc","JobId":"4629","Queue":"local","Cluster":"aip","CPU_Hours":0.047777777777778,"User":"simforgetest2","Mem_GB_Hours":0.020719882117377,"runTime":0.023888888888889,"JobDescription":"starccm_test3","GPU_Cost":0,"CPU_Cost":0.023888888888889,"Mem_Cost":0.0020719882117377,"App_Cost":0.23888888888889},{"EndDate":"2020\/07\/16","GPU_Hours":0,"App":"Fluent","JobName":"cubevnc","JobId":"4632","Queue":"q_x86_share","Cluster":"aip","CPU_Hours":0.017777777777778,"User":"simforgetest2","Mem_GB_Hours":2.5066799587674e-5,"runTime":0.0022222222222222,"JobDescription":"fluent_test1","GPU_Cost":0,"CPU_Cost":0.0088888888888889,"Mem_Cost":2.5066799587674e-6,"App_Cost":0.088888888888889},{"EndDate":"2020\/07\/16","GPU_Hours":0,"App":"PointWise","JobName":"cubevnc","JobId":"4620","Queue":"local","Cluster":"aip","CPU_Hours":1.8202777777778,"User":"simforgetest2","Mem_GB_Hours":5.2166751331753,"runTime":1.8202777777778,"JobDescription":"PW_test1","GPU_Cost":0,"CPU_Cost":0.91013888888889,"Mem_Cost":0.52166751331753,"App_Cost":9.1013888888889},{"EndDate":"2020\/07\/16","GPU_Hours":0,"App":"Fluent","JobName":"cubevnc","JobId":"4633","Queue":"q_x86_expr","Cluster":"aip","CPU_Hours":11.9,"User":"simforgetest2","Mem_GB_Hours":0.086110337575277,"runTime":0.99166666666667,"JobDescription":"flunet_test1","GPU_Cost":0,"CPU_Cost":5.95,"Mem_Cost":0.0086110337575277,"App_Cost":59.5},{"EndDate":"2020\/07\/16","GPU_Hours":0,"App":"Fluent","JobName":"cubevnc","JobId":"4634","Queue":"q_x86_expr","Cluster":"aip","CPU_Hours":1.0027777777778,"User":"simforgetest2","Mem_GB_Hours":0.079738246070014,"runTime":1.0027777777778,"JobDescription":"fluent_test2","GPU_Cost":0,"CPU_Cost":0.50138888888889,"Mem_Cost":0.0079738246070014,"App_Cost":5.0138888888889},{"EndDate":"2020\/07\/16","GPU_Hours":0,"App":"Abaqus2017","JobName":"Job-130239","JobId":"4531","Queue":"q_x86_share","Cluster":"aip","CPU_Hours":0.013333333333333,"User":"simforgetest2","Mem_GB_Hours":0,"runTime":0.013333333333333,"JobDescription":"Job-130239-qiuxiao","GPU_Cost":0,"CPU_Cost":0.0066666666666667,"Mem_Cost":0,"App_Cost":0.066666666666667},{"EndDate":"2020\/07\/16","GPU_Hours":0,"App":"Abaqus2017","JobName":"Job-123352","JobId":"4510","Queue":"q_x86_expr","Cluster":"aip","CPU_Hours":0.076666666666667,"User":"simforgetest2","Mem_GB_Hours":7.5552198621962e-5,"runTime":0.0063888888888889,"JobDescription":"Job-123352-e1","GPU_Cost":0,"CPU_Cost":0.038333333333333,"Mem_Cost":7.5552198621962e-6,"App_Cost":0.38333333333333},{"EndDate":"2020\/07\/16","GPU_Hours":0,"App":"Abaqus2017","JobName":"Job-123733","JobId":"4516","Queue":"q_x86_expr","Cluster":"aip","CPU_Hours":0.08,"User":"simforgetest2","Mem_GB_Hours":7.8786214192708e-5,"runTime":0.0066666666666667,"JobDescription":"Job-123733-e1","GPU_Cost":0,"CPU_Cost":0.04,"Mem_Cost":7.8786214192708e-6,"App_Cost":0.4},{"EndDate":"2020\/07\/16","GPU_Hours":0,"App":"Abaqus2017","JobName":"Job-165327","JobId":"4602","Queue":"q_x86_expr","Cluster":"aip","CPU_Hours":0.34666666666667,"User":"simforgetest2","Mem_GB_Hours":0.0040968831380208,"runTime":0.34666666666667,"JobDescription":"Job-165327-qiuxiao","GPU_Cost":0,"CPU_Cost":0.17333333333333,"Mem_Cost":0.00040968831380208,"App_Cost":1.7333333333333},{"EndDate":"2020\/07\/16","GPU_Hours":0,"App":"Abaqus2017","JobName":"Job-124302","JobId":"4521","Queue":"q_x86_expr","Cluster":"aip","CPU_Hours":0.34777777777778,"User":"simforgetest2","Mem_GB_Hours":0.0041139941745334,"runTime":0.34777777777778,"JobDescription":"Job-124302-qiuxiao","GPU_Cost":0,"CPU_Cost":0.17388888888889,"Mem_Cost":0.00041139941745334,"App_Cost":1.7388888888889},{"EndDate":"2020\/07\/16","GPU_Hours":0,"App":"Abaqus2017","JobName":"Job-161448","JobId":"4591","Queue":"q_x86_share","Cluster":"aip","CPU_Hours":0.38194444444444,"User":"simforgetest2","Mem_GB_Hours":0.0045181645287408,"runTime":0.38194444444444,"JobDescription":"Job-161448-qiuxiao","GPU_Cost":0,"CPU_Cost":0.19097222222222,"Mem_Cost":0.00045181645287408,"App_Cost":1.9097222222222},{"EndDate":"2020\/07\/16","GPU_Hours":0,"App":"TankSim","JobName":"cubevnc","JobId":"4566","Queue":"local","Cluster":"aip","CPU_Hours":6.5383333333333,"User":"simforgetest2","Mem_GB_Hours":1.3178977775574,"runTime":6.5383333333333,"JobDescription":"cylindernew01","GPU_Cost":0,"CPU_Cost":3.2691666666667,"Mem_Cost":0.13178977775574,"App_Cost":6.5383333333333},{"EndDate":"2020\/07\/16","GPU_Hours":0,"App":"ParaView","JobName":"cubevnc","JobId":"4596","Queue":"local","Cluster":"aip","CPU_Hours":4.7383333333333,"User":"simforgetest2","Mem_GB_Hours":3.5985586865743,"runTime":4.7383333333333,"JobDescription":"checkmesh02","GPU_Cost":0,"CPU_Cost":2.3691666666667,"Mem_Cost":0.35985586865743,"App_Cost":2.3691666666667},{"EndDate":"2020\/07\/16","GPU_Hours":0,"App":"TankSim","JobName":"cubevnc","JobId":"4503","Queue":"local","Cluster":"aip","CPU_Hours":8.9808333333333,"User":"simforgetest2","Mem_GB_Hours":1.6127157147725,"runTime":8.9808333333333,"JobDescription":"tankstable03","GPU_Cost":0,"CPU_Cost":4.4904166666667,"Mem_Cost":0.16127157147725,"App_Cost":8.9808333333333},{"EndDate":"2020\/07\/16","GPU_Hours":0,"App":"LSPrePost","JobName":"cubevnc","JobId":"4603","Queue":"local","Cluster":"aip","CPU_Hours":4.3344444444444,"User":"simforgetest2","Mem_GB_Hours":2.307088347541,"runTime":4.3344444444444,"JobDescription":"testcsub01","GPU_Cost":0,"CPU_Cost":2.1672222222222,"Mem_Cost":0.2307088347541,"App_Cost":0},{"EndDate":"2020\/07\/16","GPU_Hours":0,"App":"LSPrePost","JobName":"cubevnc","JobId":"4748","Queue":"local","Cluster":"aip","CPU_Hours":0.1825,"User":"simforgetest2","Mem_GB_Hours":0.093366394042969,"runTime":0.1825,"JobDescription":"car2car01","GPU_Cost":0,"CPU_Cost":0.09125,"Mem_Cost":0.0093366394042969,"App_Cost":0},{"EndDate":"2020\/07\/16","GPU_Hours":0,"App":"LS-DYNA","JobName":"\/home\/export\/online1\/simforgetest2\/betatest\/LSDYAN\/carroof\/000_yaris_dynamic_roof_crush_01.k","JobId":"4757","Queue":"q_x86_share","Cluster":"aip","CPU_Hours":0.17333333333333,"User":"simforgetest2","Mem_GB_Hours":0,"runTime":0.0072222222222222,"JobDescription":"000_yaris_dynamic_roof_crush_01.k","GPU_Cost":0,"CPU_Cost":0.086666666666667,"Mem_Cost":0,"App_Cost":0.86666666666667},{"EndDate":"2020\/07\/16","GPU_Hours":0,"App":"LS-DYNA","JobName":"\/home\/export\/online1\/simforgetest2\/LSDYNA\/can.key","JobId":"4752","Queue":"q_x86_share","Cluster":"aip","CPU_Hours":0.1875,"User":"simforgetest2","Mem_GB_Hours":0,"runTime":0.1875,"JobDescription":"can.key","GPU_Cost":0,"CPU_Cost":0.09375,"Mem_Cost":0,"App_Cost":0.9375},{"EndDate":"2020\/07\/16","GPU_Hours":0,"App":"Abaqus2017","JobName":"Job-212635","JobId":"4755","Queue":"q_x86_share","Cluster":"aip","CPU_Hours":0.37055555555556,"User":"simforgetest2","Mem_GB_Hours":0.0021896002027724,"runTime":0.18527777777778,"JobDescription":"Job-212635-qiuxiao","GPU_Cost":0,"CPU_Cost":0.18527777777778,"Mem_Cost":0.00021896002027724,"App_Cost":1.8527777777778},{"EndDate":"2020\/07\/16","GPU_Hours":0,"App":"LS-DYNA","JobName":"\/home\/export\/online1\/simforgetest2\/LSDYNA\/can.key","JobId":"4759","Queue":"q_x86_share","Cluster":"aip","CPU_Hours":0.25333333333333,"User":"simforgetest2","Mem_GB_Hours":0.0014983876546224,"runTime":0.12666666666667,"JobDescription":"can.key","GPU_Cost":0,"CPU_Cost":0.12666666666667,"Mem_Cost":0.00014983876546224,"App_Cost":1.2666666666667},{"EndDate":"2020\/07\/16","GPU_Hours":0,"App":"LSPrePost","JobName":"cubevnc","JobId":"4753","Queue":"local","Cluster":"aip","CPU_Hours":0.45972222222222,"User":"simforgetest2","Mem_GB_Hours":0.38756794399685,"runTime":0.45972222222222,"JobDescription":"carcrush02","GPU_Cost":0,"CPU_Cost":0.22986111111111,"Mem_Cost":0.038756794399685,"App_Cost":0},{"EndDate":"2020\/07\/16","GPU_Hours":0,"App":"TankSim","JobName":"cubevnc","JobId":"4504","Queue":"local","Cluster":"aip","CPU_Hours":9.5866666666667,"User":"simforgetest2","Mem_GB_Hours":1.6345064798991,"runTime":9.5866666666667,"JobDescription":"salometritest01","GPU_Cost":0,"CPU_Cost":4.7933333333333,"Mem_Cost":0.16345064798991,"App_Cost":9.5866666666667},{"EndDate":"2020\/07\/16","GPU_Hours":0,"App":"Abaqus2017","JobName":"Job-220853","JobId":"4764","Queue":"q_x86_share","Cluster":"aip","CPU_Hours":13.213333333333,"User":"simforgetest2","Mem_GB_Hours":0,"runTime":0.55055555555556,"JobDescription":"Job-220853-e1","GPU_Cost":0,"CPU_Cost":6.6066666666667,"Mem_Cost":0,"App_Cost":66.066666666667},{"EndDate":"2020\/07\/17","GPU_Hours":0,"App":"StarCCM","JobName":"cubevnc","JobId":"4630","Queue":"local","Cluster":"aip","CPU_Hours":14.621111111111,"User":"simforgetest2","Mem_GB_Hours":16.480207163493,"runTime":14.621111111111,"JobDescription":"starccm_test3","GPU_Cost":0,"CPU_Cost":7.3105555555556,"Mem_Cost":1.6480207163493,"App_Cost":73.105555555556},{"EndDate":"2020\/07\/17","GPU_Hours":0,"App":"Abaqus2017","JobName":"Job-111014","JobId":"4779","Queue":"q_x86_share","Cluster":"aip","CPU_Hours":0.29111111111111,"User":"simforgetest2","Mem_GB_Hours":0,"runTime":0.036388888888889,"JobDescription":"Job-111014-Squeeze","GPU_Cost":0,"CPU_Cost":0.14555555555556,"Mem_Cost":0,"App_Cost":1.4555555555556},{"EndDate":"2020\/07\/17","GPU_Hours":0,"App":"LSPrePost","JobName":"cubevnc","JobId":"4763","Queue":"local","Cluster":"aip","CPU_Hours":2.8311111111111,"User":"simforgetest2","Mem_GB_Hours":1.594303571913,"runTime":2.8311111111111,"JobDescription":"car2car01","GPU_Cost":0,"CPU_Cost":1.4155555555556,"Mem_Cost":0.1594303571913,"App_Cost":0},{"EndDate":"2020\/07\/17","GPU_Hours":0,"App":"LSPrePost","JobName":"cubevnc","JobId":"4783","Queue":"local","Cluster":"aip","CPU_Hours":0.052222222222222,"User":"simforgetest2","Mem_GB_Hours":0.0005962414211697,"runTime":0.052222222222222,"JobDescription":"droptest","GPU_Cost":0,"CPU_Cost":0.026111111111111,"Mem_Cost":5.962414211697e-5,"App_Cost":0},{"EndDate":"2020\/07\/17","GPU_Hours":0,"App":"LS-DYNA","JobName":"\/home\/export\/base\/nsccwuxi_amd\/simforgetest2\/online1\/betatest\/LSDYAN\/carroof\/000_yaris_dynamic_roof_crush_01.k","JobId":"4789","Queue":"q_x86_share","Cluster":"aip","CPU_Hours":0.14666666666667,"User":"simforgetest2","Mem_GB_Hours":7.2267320421007e-5,"runTime":0.0061111111111111,"JobDescription":"000_yaris_dynamic_roof_crush_01.k","GPU_Cost":0,"CPU_Cost":0.073333333333333,"Mem_Cost":7.2267320421007e-6,"App_Cost":0.73333333333333},{"EndDate":"2020\/07\/17","GPU_Hours":0,"App":"LS-DYNA","JobName":"\/home\/export\/base\/nsccwuxi_amd\/simforgetest2\/online1\/betatest\/LSDYAN\/carroof\/implicit_control_cards_R9.k","JobId":"4790","Queue":"q_x86_share","Cluster":"aip","CPU_Hours":0.18666666666667,"User":"simforgetest2","Mem_GB_Hours":9.1234842936198e-5,"runTime":0.0077777777777778,"JobDescription":"implicit_control_cards_R9.k","GPU_Cost":0,"CPU_Cost":0.093333333333333,"Mem_Cost":9.1234842936198e-6,"App_Cost":0.93333333333333},{"EndDate":"2020\/07\/17","GPU_Hours":0,"App":"LS-DYNA","JobName":"\/home\/export\/online1\/simforgetest2\/betatest\/LSDYAN\/car2car\/Caravan-V03c-2400k-main-shell16-10ms.k","JobId":"4786","Queue":"q_x86_share","Cluster":"aip","CPU_Hours":24.546666666667,"User":"simforgetest2","Mem_GB_Hours":0,"runTime":1.0227777777778,"JobDescription":"Caravan-V03c-2400k-main-shell16-10ms.k","GPU_Cost":0,"CPU_Cost":12.273333333333,"Mem_Cost":0,"App_Cost":122.73333333333},{"EndDate":"2020\/07\/17","GPU_Hours":0,"App":"LSPrePost","JobName":"cubevnc","JobId":"4751","Queue":"local","Cluster":"aip","CPU_Hours":17.916111111111,"User":"simforgetest2","Mem_GB_Hours":29.070965218014,"runTime":17.916111111111,"JobDescription":"testcsub01","GPU_Cost":0,"CPU_Cost":8.9580555555556,"Mem_Cost":2.9070965218014,"App_Cost":0},{"EndDate":"2020\/07\/17","GPU_Hours":0,"App":"LSPrePost","JobName":"cubevnc","JobId":"4782","Queue":"local","Cluster":"aip","CPU_Hours":3.6936111111111,"User":"simforgetest2","Mem_GB_Hours":0.92662938965691,"runTime":3.6936111111111,"JobDescription":"car2car01","GPU_Cost":0,"CPU_Cost":1.8468055555556,"Mem_Cost":0.092662938965691,"App_Cost":0},{"EndDate":"2020\/07\/17","GPU_Hours":0,"App":"LS-DYNA","JobName":"\/home\/export\/online1\/simforgetest2\/betatest\/LSDYAN\/EXP_SC_DROP.key","JobId":"4800","Queue":"q_x86_share","Cluster":"aip","CPU_Hours":0.041666666666667,"User":"simforgetest2","Mem_GB_Hours":0.00024636586507161,"runTime":0.020833333333333,"JobDescription":"EXP_SC_DROP.key","GPU_Cost":0,"CPU_Cost":0.020833333333333,"Mem_Cost":2.4636586507161e-5,"App_Cost":0.20833333333333},{"EndDate":"2020\/07\/17","GPU_Hours":0,"App":"LS-DYNA","JobName":"\/home\/export\/online1\/simforgetest2\/betatest\/LSDYAN\/EXP_SC_DROP.key","JobId":"4799","Queue":"q_x86_expr","Cluster":"aip","CPU_Hours":0.037777777777778,"User":"simforgetest2","Mem_GB_Hours":0.00022337171766493,"runTime":0.018888888888889,"JobDescription":"EXP_SC_DROP.key","GPU_Cost":0,"CPU_Cost":0.018888888888889,"Mem_Cost":2.2337171766493e-5,"App_Cost":0.18888888888889},{"EndDate":"2020\/07\/17","GPU_Hours":0,"App":"Abaqus","JobName":"cubevnc","JobId":"4776","Queue":"local","Cluster":"aip","CPU_Hours":6.1775,"User":"simforgetest2","Mem_GB_Hours":3.7417913818359,"runTime":6.1775,"JobDescription":"squuze01","GPU_Cost":0,"CPU_Cost":3.08875,"Mem_Cost":0.37417913818359,"App_Cost":30.8875},{"EndDate":"2020\/07\/17","GPU_Hours":0,"App":"TankSim","JobName":"cubevnc","JobId":"4808","Queue":"local","Cluster":"aip","CPU_Hours":0.034722222222222,"User":"simforgetest2","Mem_GB_Hours":0.0058737066056993,"runTime":0.034722222222222,"JobDescription":"betatest01","GPU_Cost":0,"CPU_Cost":0.017361111111111,"Mem_Cost":0.00058737066056993,"App_Cost":0.034722222222222},{"EndDate":"2020\/07\/17","GPU_Hours":0,"App":"ICEM-CFD","JobName":"cubevnc","JobId":"4821","Queue":"local","Cluster":"aip","CPU_Hours":0.069444444444444,"User":"simforgetest2","Mem_GB_Hours":0.00087579091389974,"runTime":0.069444444444444,"JobDescription":"icemcfd_of","GPU_Cost":0,"CPU_Cost":0.034722222222222,"Mem_Cost":8.7579091389974e-5,"App_Cost":0.34722222222222},{"EndDate":"2020\/07\/17","GPU_Hours":0,"App":"PointWise","JobName":"cubevnc","JobId":"4822","Queue":"local","Cluster":"aip","CPU_Hours":0.037222222222222,"User":"simforgetest2","Mem_GB_Hours":0.00046885596381293,"runTime":0.037222222222222,"JobDescription":"PW_test","GPU_Cost":0,"CPU_Cost":0.018611111111111,"Mem_Cost":4.6885596381293e-5,"App_Cost":0.18611111111111},{"EndDate":"2020\/07\/17","GPU_Hours":0,"App":"Fluent","JobName":"cubevnc","JobId":"4827","Queue":"q_x86_expr","Cluster":"aip","CPU_Hours":0.059722222222222,"User":"simforgetest2","Mem_GB_Hours":0.00069964196946886,"runTime":0.059722222222222,"JobDescription":"fluent_test_17","GPU_Cost":0,"CPU_Cost":0.029861111111111,"Mem_Cost":6.9964196946886e-5,"App_Cost":0.29861111111111},{"EndDate":"2020\/07\/17","GPU_Hours":0,"App":"Abaqus","JobName":"cubevnc","JobId":"4749","Queue":"local","Cluster":"aip","CPU_Hours":21.356666666667,"User":"simforgetest2","Mem_GB_Hours":21.372390225728,"runTime":21.356666666667,"JobDescription":"abaqusbeta02","GPU_Cost":0,"CPU_Cost":10.678333333333,"Mem_Cost":2.1372390225728,"App_Cost":106.78333333333},{"EndDate":"2020\/07\/17","GPU_Hours":0,"App":"ParaView","JobName":"cubevnc","JobId":"4793","Queue":"local","Cluster":"aip","CPU_Hours":6.0041666666667,"User":"simforgetest2","Mem_GB_Hours":2.1369733969371,"runTime":6.0041666666667,"JobDescription":"pvnew01","GPU_Cost":0,"CPU_Cost":3.0020833333333,"Mem_Cost":0.21369733969371,"App_Cost":3.0020833333333},{"EndDate":"2020\/07\/17","GPU_Hours":0,"App":"Abaqus2017","JobName":"Job-183706","JobId":"4836","Queue":"q_x86_share","Cluster":"aip","CPU_Hours":0.011111111111111,"User":"simforgetest2","Mem_GB_Hours":6.4277648925781e-5,"runTime":0.0055555555555556,"JobDescription":"Job-183706-e1","GPU_Cost":0,"CPU_Cost":0.0055555555555556,"Mem_Cost":6.4277648925781e-6,"App_Cost":0.055555555555556},{"EndDate":"2020\/07\/17","GPU_Hours":0,"App":"Abaqus","JobName":"cubevnc","JobId":"4835","Queue":"local","Cluster":"aip","CPU_Hours":0.24833333333333,"User":"simforgetest2","Mem_GB_Hours":0.14550118128459,"runTime":0.24833333333333,"JobDescription":"abaenglish","GPU_Cost":0,"CPU_Cost":0.12416666666667,"Mem_Cost":0.014550118128459,"App_Cost":1.2416666666667},{"EndDate":"2020\/07\/17","GPU_Hours":0,"App":"Abaqus","JobName":"cubevnc","JobId":"4834","Queue":"local","Cluster":"aip","CPU_Hours":0.33833333333333,"User":"simforgetest2","Mem_GB_Hours":0.23800161997477,"runTime":0.33833333333333,"JobDescription":"newtestaba02","GPU_Cost":0,"CPU_Cost":0.16916666666667,"Mem_Cost":0.023800161997477,"App_Cost":1.6916666666667},{"EndDate":"2020\/07\/17","GPU_Hours":0,"App":"Abaqus2017","JobName":"Job-185659","JobId":"4839","Queue":"q_x86_share","Cluster":"aip","CPU_Hours":0.026111111111111,"User":"simforgetest2","Mem_GB_Hours":0.00015304459465875,"runTime":0.013055555555556,"JobDescription":"Job-185659-e1","GPU_Cost":0,"CPU_Cost":0.013055555555556,"Mem_Cost":1.5304459465875e-5,"App_Cost":0.13055555555556},{"EndDate":"2020\/07\/17","GPU_Hours":0,"App":"ICEM-CFD","JobName":"cubevnc","JobId":"4846","Queue":"local","Cluster":"aip","CPU_Hours":0.0061111111111111,"User":"simforgetest2","Mem_GB_Hours":0.0012547471788194,"runTime":0.0061111111111111,"JobDescription":"icem_of","GPU_Cost":0,"CPU_Cost":0.0030555555555556,"Mem_Cost":0.00012547471788194,"App_Cost":0.030555555555556},{"EndDate":"2020\/07\/19","GPU_Hours":0,"App":"TankSim","JobName":"cubevnc","JobId":"5100","Queue":"local","Cluster":"aip","CPU_Hours":0.1475,"User":"simforgetest2","Mem_GB_Hours":0.021466903686523,"runTime":0.1475,"JobDescription":"cylindernew01","GPU_Cost":0,"CPU_Cost":0.07375,"Mem_Cost":0.0021466903686523,"App_Cost":0.1475},{"EndDate":"2020\/07\/19","GPU_Hours":0,"App":"Abaqus","JobName":"cubevnc","JobId":"4838","Queue":"local","Cluster":"aip","CPU_Hours":51.518888888889,"User":"simforgetest2","Mem_GB_Hours":36.491301612854,"runTime":51.518888888889,"JobDescription":"abaenglish","GPU_Cost":0,"CPU_Cost":25.759444444444,"Mem_Cost":3.6491301612854,"App_Cost":257.59444444444},{"EndDate":"2020\/07\/19","GPU_Hours":0,"App":"TankSim","JobName":"cubevnc","JobId":"5190","Queue":"local","Cluster":"aip","CPU_Hours":0.19444444444444,"User":"simforgetest2","Mem_GB_Hours":0.031780878702799,"runTime":0.19444444444444,"JobDescription":"cylindernew01","GPU_Cost":0,"CPU_Cost":0.097222222222222,"Mem_Cost":0.0031780878702799,"App_Cost":0.19444444444444},{"EndDate":"2020\/07\/19","GPU_Hours":0,"App":"TankSim","JobName":"cubevnc","JobId":"4809","Queue":"local","Cluster":"aip","CPU_Hours":54.961944444444,"User":"simforgetest2","Mem_GB_Hours":11.516798432668,"runTime":54.961944444444,"JobDescription":"betatest01","GPU_Cost":0,"CPU_Cost":27.480972222222,"Mem_Cost":1.1516798432668,"App_Cost":54.961944444444},{"EndDate":"2020\/07\/20","GPU_Hours":0,"App":"LS-DYNA","JobName":"\/home\/export\/base\/nsccwuxi_amd\/simforgetest2\/online1\/betatest\/LSDYAN\/carroof\/000_yaris_dynamic_roof_crush_01.k","JobId":"4791","Queue":"q_x86_share","Cluster":"aip","CPU_Hours":818.76,"User":"simforgetest2","Mem_GB_Hours":0,"runTime":68.23,"JobDescription":"000_yaris_dynamic_roof_crush_01.k","GPU_Cost":0,"CPU_Cost":409.38,"Mem_Cost":0,"App_Cost":4093.8},{"EndDate":"2020\/07\/20","GPU_Hours":0,"App":"PointWise","JobName":"cubevnc","JobId":"4825","Queue":"local","Cluster":"aip","CPU_Hours":63.18,"User":"simforgetest2","Mem_GB_Hours":14.054648208618,"runTime":63.18,"JobDescription":"PW_test1","GPU_Cost":0,"CPU_Cost":31.59,"Mem_Cost":1.4054648208618,"App_Cost":315.9},{"EndDate":"2020\/07\/21","GPU_Hours":0,"App":"TankSim","JobName":"cubevnc","JobId":"5204","Queue":"local","Cluster":"aip","CPU_Hours":26.091388888889,"User":"simforgetest2","Mem_GB_Hours":5.0605414454142,"runTime":26.091388888889,"JobDescription":"betatank02","GPU_Cost":0,"CPU_Cost":13.045694444444,"Mem_Cost":0.50605414454142,"App_Cost":26.091388888889},{"EndDate":"2020\/07\/22","GPU_Hours":0,"App":"ICEM-CFD","JobName":"cubevnc","JobId":"4828","Queue":"local","Cluster":"aip","CPU_Hours":120.37361111111,"User":"simforgetest2","Mem_GB_Hours":25.53457552592,"runTime":120.37361111111,"JobDescription":"icemcfd_of","GPU_Cost":0,"CPU_Cost":60.186805555556,"Mem_Cost":2.553457552592,"App_Cost":601.86805555556},{"EndDate":"2020\/07\/22","GPU_Hours":0,"App":"StarCCM","JobName":"cubevnc","JobId":"4626","Queue":"local","Cluster":"aip","CPU_Hours":143.7925,"User":"simforgetest2","Mem_GB_Hours":72.161187505722,"runTime":143.7925,"JobDescription":"starccm_test1","GPU_Cost":0,"CPU_Cost":71.89625,"Mem_Cost":7.2161187505722,"App_Cost":718.9625},{"EndDate":"2020\/07\/22","GPU_Hours":0,"App":"PointWise","JobName":"cubevnc","JobId":"5205","Queue":"local","Cluster":"aip","CPU_Hours":59.329722222222,"User":"simforgetest2","Mem_GB_Hours":17.716036477619,"runTime":59.329722222222,"JobDescription":"PW_test1","GPU_Cost":0,"CPU_Cost":29.664861111111,"Mem_Cost":1.7716036477619,"App_Cost":296.64861111111},{"EndDate":"2020\/07\/22","GPU_Hours":0,"App":"LSPrePost","JobName":"cubevnc","JobId":"4798","Queue":"local","Cluster":"aip","CPU_Hours":124.66833333333,"User":"simforgetest2","Mem_GB_Hours":45.924556522369,"runTime":124.66833333333,"JobDescription":"car2car01","GPU_Cost":0,"CPU_Cost":62.334166666667,"Mem_Cost":4.5924556522369,"App_Cost":0},{"EndDate":"2020\/07\/22","GPU_Hours":0,"App":"LSPrePost","JobName":"cubevnc","JobId":"4762","Queue":"local","Cluster":"aip","CPU_Hours":131.20277777778,"User":"simforgetest2","Mem_GB_Hours":371.96526036792,"runTime":131.20277777778,"JobDescription":"test02","GPU_Cost":0,"CPU_Cost":65.601388888889,"Mem_Cost":37.196526036792,"App_Cost":0},{"EndDate":"2020\/07\/23","GPU_Hours":0,"App":"Abaqus","JobName":"cubevnc","JobId":"5613","Queue":"local","Cluster":"aip","CPU_Hours":0.047777777777778,"User":"simforgetest2","Mem_GB_Hours":0.014268230862088,"runTime":0.047777777777778,"JobDescription":"newtestaba02","GPU_Cost":0,"CPU_Cost":0.023888888888889,"Mem_Cost":0.0014268230862088,"App_Cost":0.23888888888889},{"EndDate":"2020\/07\/23","GPU_Hours":0,"App":"TankSim","JobName":"cubevnc","JobId":"5614","Queue":"local","Cluster":"aip","CPU_Hours":0.11861111111111,"User":"simforgetest2","Mem_GB_Hours":0.017251603868273,"runTime":0.11861111111111,"JobDescription":"maxsalome01","GPU_Cost":0,"CPU_Cost":0.059305555555556,"Mem_Cost":0.0017251603868273,"App_Cost":0.11861111111111},{"EndDate":"2020\/07\/23","GPU_Hours":0,"App":"LSPrePost","JobName":"cubevnc","JobId":"5612","Queue":"local","Cluster":"aip","CPU_Hours":0.30083333333333,"User":"simforgetest2","Mem_GB_Hours":0.37922278086344,"runTime":0.30083333333333,"JobDescription":"droptest","GPU_Cost":0,"CPU_Cost":0.15041666666667,"Mem_Cost":0.037922278086344,"App_Cost":0},{"EndDate":"2020\/07\/23","GPU_Hours":0,"App":"LS-DYNA","JobName":"\/home\/export\/online1\/simforgetest2\/betatest\/LSDYAN\/car2car\/Caravan-V03c-2400k-main-shell16-10ms.k","JobId":"5618","Queue":"q_x86_share","Cluster":"aip","CPU_Hours":26.78,"User":"simforgetest2","Mem_GB_Hours":0.030051358540853,"runTime":1.1158333333333,"JobDescription":"Caravan-V03c-2400k-main-shell16-10ms.k","GPU_Cost":0,"CPU_Cost":13.39,"Mem_Cost":0.0030051358540853,"App_Cost":133.9},{"EndDate":"2020\/07\/23","GPU_Hours":0.053055555555556,"App":"PointWise","JobName":"cubevnc","JobId":"5646","Queue":"local","Cluster":"aip","CPU_Hours":0.053055555555556,"User":"simforgetest2","Mem_GB_Hours":0.063437803056505,"runTime":0.053055555555556,"JobDescription":"PW_test","GPU_Cost":0.026527777777778,"CPU_Cost":0.026527777777778,"Mem_Cost":0.0063437803056505,"App_Cost":0.26527777777778},{"EndDate":"2020\/07\/23","GPU_Hours":0.23805555555556,"App":"PointWise","JobName":"cubevnc","JobId":"5647","Queue":"local","Cluster":"aip","CPU_Hours":0.23805555555556,"User":"simforgetest2","Mem_GB_Hours":1.0398248577118,"runTime":0.23805555555556,"JobDescription":"PW_test2","GPU_Cost":0.11902777777778,"CPU_Cost":0.11902777777778,"Mem_Cost":0.10398248577118,"App_Cost":1.1902777777778},{"EndDate":"2020\/07\/23","GPU_Hours":0.14833333333333,"App":"ICEM-CFD","JobName":"cubevnc","JobId":"5648","Queue":"local","Cluster":"aip","CPU_Hours":0.14833333333333,"User":"simforgetest2","Mem_GB_Hours":0.04170290629069,"runTime":0.14833333333333,"JobDescription":"ICEMCFD_test","GPU_Cost":0.074166666666667,"CPU_Cost":0.074166666666667,"Mem_Cost":0.004170290629069,"App_Cost":0.74166666666667},{"EndDate":"2020\/07\/23","GPU_Hours":0.25777777777778,"App":"ICEM-CFD","JobName":"cubevnc","JobId":"5650","Queue":"local","Cluster":"aip","CPU_Hours":0.25777777777778,"User":"simforgetest2","Mem_GB_Hours":0.069079928927951,"runTime":0.25777777777778,"JobDescription":"ICEMCFD_test2","GPU_Cost":0.12888888888889,"CPU_Cost":0.12888888888889,"Mem_Cost":0.0069079928927951,"App_Cost":1.2888888888889},{"EndDate":"2020\/07\/23","GPU_Hours":0,"App":"","JobName":"swof_\/home\/export\/base\/nsccwuxi_amd\/simforgetest2\/WORK\/OF-GUItest\/OF-GUItest_Mesh_starcd_post4542","JobId":"5655","Queue":"q_x86_expr","Cluster":"aip","CPU_Hours":0.0027777777777778,"User":"simforgetest2","Mem_GB_Hours":3.2170613606771e-5,"runTime":0.0027777777777778,"JobDescription":"","GPU_Cost":0,"CPU_Cost":0.0013888888888889,"Mem_Cost":3.2170613606771e-6,"App_Cost":0},{"EndDate":"2020\/07\/23","GPU_Hours":0,"App":"","JobName":"swof_\/home\/export\/base\/nsccwuxi_amd\/simforgetest2\/WORK\/ZHL\/tank\/tank_Mesh2559","JobId":"5656","Queue":"q_x86_expr","Cluster":"aip","CPU_Hours":0.0063888888888889,"User":"simforgetest2","Mem_GB_Hours":7.3919296264648e-5,"runTime":0.0063888888888889,"JobDescription":"","GPU_Cost":0,"CPU_Cost":0.0031944444444444,"Mem_Cost":7.3919296264648e-6,"App_Cost":0},{"EndDate":"2020\/07\/23","GPU_Hours":0,"App":"","JobName":"swof_\/home\/export\/base\/nsccwuxi_amd\/simforgetest2\/WORK\/ZHL\/tank\/tank_Mesh_starcd_post2559","JobId":"5657","Queue":"q_x86_expr","Cluster":"aip","CPU_Hours":0.0022222222222222,"User":"simforgetest2","Mem_GB_Hours":2.5728013780382e-5,"runTime":0.0022222222222222,"JobDescription":"","GPU_Cost":0,"CPU_Cost":0.0011111111111111,"Mem_Cost":2.5728013780382e-6,"App_Cost":0},{"EndDate":"2020\/07\/23","GPU_Hours":0,"App":"","JobName":"swof_\/home\/export\/base\/nsccwuxi_amd\/simforgetest2\/WORK\/ZHL\/tank\/tank_Mesh5049","JobId":"5658","Queue":"q_x86_expr","Cluster":"aip","CPU_Hours":0.0066666666666667,"User":"simforgetest2","Mem_GB_Hours":7.7184041341146e-5,"runTime":0.0066666666666667,"JobDescription":"","GPU_Cost":0,"CPU_Cost":0.0033333333333333,"Mem_Cost":7.7184041341146e-6,"App_Cost":0},{"EndDate":"2020\/07\/23","GPU_Hours":0,"App":"Fluent","JobName":"cubevnc","JobId":"5659","Queue":"q_x86_expr","Cluster":"aip","CPU_Hours":11.866666666667,"User":"simforgetest2","Mem_GB_Hours":0.084209314982096,"runTime":0.98888888888889,"JobDescription":"fluent_test","GPU_Cost":0,"CPU_Cost":5.9333333333333,"Mem_Cost":0.0084209314982096,"App_Cost":59.333333333333},{"EndDate":"2020\/07\/23","GPU_Hours":0,"App":"","JobName":"swof_\/home\/export\/base\/nsccwuxi_amd\/simforgetest2\/WORK\/ZHL\/OF-GUItest\/OF-GUItest_Mesh6840","JobId":"5660","Queue":"q_x86_expr","Cluster":"aip","CPU_Hours":0.016944444444444,"User":"simforgetest2","Mem_GB_Hours":0.0001962407430013,"runTime":0.016944444444444,"JobDescription":"","GPU_Cost":0,"CPU_Cost":0.0084722222222222,"Mem_Cost":1.962407430013e-5,"App_Cost":0},{"EndDate":"2020\/07\/23","GPU_Hours":0,"App":"","JobName":"swof_\/home\/export\/base\/nsccwuxi_amd\/simforgetest2\/WORK\/ZHL\/OF-GUItest\/OF-GUItest_Mesh_starcd_post6840","JobId":"5673","Queue":"q_x86_expr","Cluster":"aip","CPU_Hours":0.005,"User":"simforgetest2","Mem_GB_Hours":5.7868957519531e-5,"runTime":0.005,"JobDescription":"","GPU_Cost":0,"CPU_Cost":0.0025,"Mem_Cost":5.7868957519531e-6,"App_Cost":0},{"EndDate":"2020\/07\/23","GPU_Hours":0,"App":"Fluent","JobName":"cubevnc","JobId":"5670","Queue":"q_x86_expr","Cluster":"aip","CPU_Hours":1.4355555555556,"User":"simforgetest2","Mem_GB_Hours":0.060712000528971,"runTime":0.71777777777778,"JobDescription":"fluent_test2","GPU_Cost":0,"CPU_Cost":0.71777777777778,"Mem_Cost":0.0060712000528971,"App_Cost":7.1777777777778},{"EndDate":"2020\/07\/24","GPU_Hours":0,"App":"setFields","JobName":"swof_\/home\/export\/base\/nsccwuxi_amd\/simforgetest2\/WORK\/ZHL\/OF-GUItest_Setfields18493","JobId":"5746","Queue":"q_x86_expr","Cluster":"aip","CPU_Hours":0.0038888888888889,"User":"simforgetest2","Mem_GB_Hours":4.4979519314236e-5,"runTime":0.0038888888888889,"JobDescription":"","GPU_Cost":0,"CPU_Cost":0.0019444444444444,"Mem_Cost":4.4979519314236e-6,"App_Cost":0},{"EndDate":"2020\/07\/24","GPU_Hours":0,"App":"decomposePar","JobName":"swof_\/home\/export\/base\/nsccwuxi_amd\/simforgetest2\/WORK\/ZHL\/OF-GUItest_Decompose66653","JobId":"5747","Queue":"q_x86_expr","Cluster":"aip","CPU_Hours":0.0075,"User":"simforgetest2","Mem_GB_Hours":0,"runTime":0.0075,"JobDescription":"","GPU_Cost":0,"CPU_Cost":0.00375,"Mem_Cost":0,"App_Cost":0},{"EndDate":"2020\/07\/24","GPU_Hours":0,"App":"interFoam","JobName":"swof_\/home\/export\/base\/nsccwuxi_amd\/simforgetest2\/WORK\/ZHL\/OF-GUItest_Calculate38262","JobId":"5751","Queue":"q_x86_share","Cluster":"aip","CPU_Hours":0.056666666666667,"User":"simforgetest2","Mem_GB_Hours":5.469004313151e-5,"runTime":0.0047222222222222,"JobDescription":"","GPU_Cost":0,"CPU_Cost":0.028333333333333,"Mem_Cost":5.469004313151e-6,"App_Cost":0},{"EndDate":"2020\/07\/24","GPU_Hours":0,"App":"interFoam","JobName":"swof_\/home\/export\/base\/nsccwuxi_amd\/simforgetest2\/WORK\/ZHL\/OF-GUItest_Calculate89412","JobId":"5752","Queue":"q_x86_share","Cluster":"aip","CPU_Hours":0.21,"User":"simforgetest2","Mem_GB_Hours":0.00020260810852051,"runTime":0.0175,"JobDescription":"","GPU_Cost":0,"CPU_Cost":0.105,"Mem_Cost":2.0260810852051e-5,"App_Cost":0},{"EndDate":"2020\/07\/24","GPU_Hours":0,"App":"interFoam","JobName":"swof_\/home\/export\/base\/nsccwuxi_amd\/simforgetest2\/WORK\/ZHL\/OF-GUItest_Calculate32871","JobId":"5753","Queue":"q_x86_share","Cluster":"aip","CPU_Hours":0.0066666666666667,"User":"simforgetest2","Mem_GB_Hours":6.4341227213542e-6,"runTime":0.00055555555555556,"JobDescription":"","GPU_Cost":0,"CPU_Cost":0.0033333333333333,"Mem_Cost":6.4341227213542e-7,"App_Cost":0},{"EndDate":"2020\/07\/24","GPU_Hours":0,"App":"interFoam","JobName":"swof_\/home\/export\/base\/nsccwuxi_amd\/simforgetest2\/WORK\/ZHL\/OF-GUItest_Calculate68478","JobId":"5754","Queue":"q_x86_share","Cluster":"aip","CPU_Hours":0.056666666666667,"User":"simforgetest2","Mem_GB_Hours":5.4672029283312e-5,"runTime":0.0047222222222222,"JobDescription":"","GPU_Cost":0,"CPU_Cost":0.028333333333333,"Mem_Cost":5.4672029283312e-6,"App_Cost":0},{"EndDate":"2020\/07\/24","GPU_Hours":0,"App":"interFoam","JobName":"swof_\/home\/export\/base\/nsccwuxi_amd\/simforgetest2\/WORK\/ZHL\/OF-GUItest_Calculate92721","JobId":"5756","Queue":"q_x86_share","Cluster":"aip","CPU_Hours":0.066666666666667,"User":"simforgetest2","Mem_GB_Hours":6.4341227213542e-5,"runTime":0.0055555555555556,"JobDescription":"","GPU_Cost":0,"CPU_Cost":0.033333333333333,"Mem_Cost":6.4341227213542e-6,"App_Cost":0},{"EndDate":"2020\/07\/24","GPU_Hours":0,"App":"interFoam","JobName":"swof_\/home\/export\/base\/nsccwuxi_amd\/simforgetest2\/WORK\/ZHL\/OF-GUItest_Calculate79239","JobId":"5757","Queue":"q_x86_share","Cluster":"aip","CPU_Hours":10.233333333333,"User":"simforgetest2","Mem_GB_Hours":0.0098763783772786,"runTime":0.85277777777778,"JobDescription":"","GPU_Cost":0,"CPU_Cost":5.1166666666667,"Mem_Cost":0.00098763783772786,"App_Cost":0},{"EndDate":"2020\/07\/24","GPU_Hours":0,"App":"","JobName":"swof_\/home\/export\/base\/nsccwuxi_amd\/simforgetest2\/WORK\/ZHL\/OF-GUItest_Pvserver25265","JobId":"5758","Queue":"q_x86_share","Cluster":"aip","CPU_Hours":0.20333333333333,"User":"simforgetest2","Mem_GB_Hours":0.00019617610507541,"runTime":0.016944444444444,"JobDescription":"","GPU_Cost":0,"CPU_Cost":0.10166666666667,"Mem_Cost":1.9617610507541e-5,"App_Cost":0},{"EndDate":"2020\/07\/25","GPU_Hours":0,"App":"StarCCM","JobName":"cubevnc","JobId":"5668","Queue":"q_x86_expr_plus","Cluster":"aip","CPU_Hours":106.37333333333,"User":"simforgetest2","Mem_GB_Hours":42.719112548828,"runTime":53.186666666667,"JobDescription":"starccm_test","GPU_Cost":0,"CPU_Cost":53.186666666667,"Mem_Cost":4.2719112548828,"App_Cost":531.86666666667},{"EndDate":"2020\/07\/25","GPU_Hours":58.506388888889,"App":"Abaqus","JobName":"cubevnc","JobId":"5619","Queue":"local","Cluster":"aip","CPU_Hours":58.506388888889,"User":"simforgetest2","Mem_GB_Hours":24.694211573071,"runTime":58.506388888889,"JobDescription":"abaqusbeta03","GPU_Cost":29.253194444444,"CPU_Cost":29.253194444444,"Mem_Cost":2.4694211573071,"App_Cost":292.53194444444}],"User":"simforgetest2"}