{"GPU_Hours":0,"App_Hours":{"LSPrePost":{"Hours":4.7172222222222,"UnitPrice":0,"Cost":0},"Abaqus":{"Hours":4.2925,"UnitPrice":0,"Cost":0},"Fluent":{"Hours":0.13333333333333,"UnitPrice":10,"Cost":1.3333333333333},"StarCCM":{"Hours":0.37333333333333,"UnitPrice":0,"Cost":0},"ParaView":{"Hours":4.6608333333333,"UnitPrice":0,"Cost":0},"ICEM-CFD":{"Hours":4.1591666666667,"UnitPrice":0,"Cost":0},"TankSim":{"Hours":4.3752777777778,"UnitPrice":0,"Cost":0},"PointWise":{"Hours":0.0033333333333333,"UnitPrice":0,"Cost":0},"LS-DYNA-R9single":{"Hours":1.0133333333333,"UnitPrice":0,"Cost":0}},"Queues":"all","Month":"2020-06","CPU_Hours":23.728333333333,"User":"simforgetest2","Mem_GB_Hours":14.474431308111,"Clusters":["aip"],"Details":[{"EndDate":"2020\/06\/30","GPU_Hours":0,"App":"Fluent","JobName":"cubevnc","JobId":"2582","Queue":"q_x86_share","Cluster":"aip","CPU_Hours":0.066666666666667,"User":"simforgetest2","Mem_GB_Hours":0.028057098388672,"runTime":0.0027777777777778,"JobDescription":"fluentcase","GPU_Cost":0,"CPU_Cost":0.066666666666667,"Mem_Cost":0,"App_Cost":0.66666666666667},{"EndDate":"2020\/06\/30","GPU_Hours":0,"App":"LS-DYNA-R9single","JobName":"\/home\/export\/online1\/simforgetest2\/TestData\/TestData\/lsdyna\/Caravan-V03c-2400k-main-shell16-10ms.k","JobId":"2589","Queue":"q_x86_expr","Cluster":"aip","CPU_Hours":0.0066666666666667,"User":"simforgetest2","Mem_GB_Hours":0.0096893310546875,"runTime":0.00027777777777778,"JobDescription":"Caravan-V03c-2400k-main-shell16-10ms.k","GPU_Cost":0,"CPU_Cost":0.0066666666666667,"Mem_Cost":0,"App_Cost":0},{"EndDate":"2020\/06\/30","GPU_Hours":0,"App":"PointWise","JobName":"cubevnc","JobId":"2591","Queue":"q_x86_expr","Cluster":"aip","CPU_Hours":0.0011111111111111,"User":"simforgetest2","Mem_GB_Hours":0.0095481872558594,"runTime":0.0011111111111111,"JobDescription":"pointtest01","GPU_Cost":0,"CPU_Cost":0.0011111111111111,"Mem_Cost":0,"App_Cost":0},{"EndDate":"2020\/06\/30","GPU_Hours":0,"App":"Fluent","JobName":"cubevnc","JobId":"2592","Queue":"q_x86_share","Cluster":"aip","CPU_Hours":0.066666666666667,"User":"simforgetest2","Mem_GB_Hours":0.038650512695312,"runTime":0.0027777777777778,"JobDescription":"fluentcase","GPU_Cost":0,"CPU_Cost":0.066666666666667,"Mem_Cost":0,"App_Cost":0.66666666666667},{"EndDate":"2020\/06\/30","GPU_Hours":0,"App":"PointWise","JobName":"cubevnc","JobId":"2598","Queue":"q_x86_expr","Cluster":"aip","CPU_Hours":0.0011111111111111,"User":"simforgetest2","Mem_GB_Hours":0.038299560546875,"runTime":0.0011111111111111,"JobDescription":"pointtest01","GPU_Cost":0,"CPU_Cost":0.0011111111111111,"Mem_Cost":0,"App_Cost":0},{"EndDate":"2020\/06\/30","GPU_Hours":0,"App":"PointWise","JobName":"cubevnc","JobId":"2599","Queue":"q_x86_expr","Cluster":"aip","CPU_Hours":0.0011111111111111,"User":"simforgetest2","Mem_GB_Hours":0.01055908203125,"runTime":0.0011111111111111,"JobDescription":"pointtest01","GPU_Cost":0,"CPU_Cost":0.0011111111111111,"Mem_Cost":0,"App_Cost":0},{"EndDate":"2020\/06\/30","GPU_Hours":0,"App":"StarCCM","JobName":"cubevnc","JobId":"2600","Queue":"q_x86_share","Cluster":"aip","CPU_Hours":0.37333333333333,"User":"simforgetest2","Mem_GB_Hours":0.067363739013672,"runTime":0.015555555555556,"JobDescription":"startest01","GPU_Cost":0,"CPU_Cost":0.37333333333333,"Mem_Cost":0,"App_Cost":0},{"EndDate":"2020\/06\/30","GPU_Hours":0,"App":"Abaqus","JobName":"cubevnc","JobId":"2626","Queue":"q_x86_expr","Cluster":"aip","CPU_Hours":0.021944444444444,"User":"simforgetest2","Mem_GB_Hours":0.45492172241211,"runTime":0.021944444444444,"JobDescription":"abatest02","GPU_Cost":0,"CPU_Cost":0.021944444444444,"Mem_Cost":0,"App_Cost":0},{"EndDate":"2020\/06\/30","GPU_Hours":0,"App":"LS-DYNA-R9single","JobName":"\/home\/export\/online1\/simforgetest2\/TestData\/TestData\/lsdyna\/Caravan-V03c-2400k-main-shell16-10ms.k","JobId":"2645","Queue":"q_x86_expr","Cluster":"aip","CPU_Hours":0.72,"User":"simforgetest2","Mem_GB_Hours":0.011028289794922,"runTime":0.015,"JobDescription":"Caravan-V03c-2400k-main-shell16-10ms.k","GPU_Cost":0,"CPU_Cost":0.72,"Mem_Cost":0,"App_Cost":0},{"EndDate":"2020\/06\/30","GPU_Hours":0,"App":"LS-DYNA-R9single","JobName":"\/home\/export\/online1\/simforgetest2\/TestData\/TestData\/lsdyna\/Caravan-V03c-2400k-main-shell16-10ms.k","JobId":"2662","Queue":"q_x86_expr","Cluster":"aip","CPU_Hours":0.17333333333333,"User":"simforgetest2","Mem_GB_Hours":0.016807556152344,"runTime":0.0072222222222222,"JobDescription":"Caravan-V03c-2400k-main-shell16-10ms.k","GPU_Cost":0,"CPU_Cost":0.17333333333333,"Mem_Cost":0,"App_Cost":0},{"EndDate":"2020\/06\/30","GPU_Hours":0,"App":"LS-DYNA-R9single","JobName":"\/home\/export\/base\/nsccwuxi_amd\/simforgetest2\/online1\/TestData\/TestData\/lsdyna\/Caravan-V03c-2400k-main-shell16-10ms.k","JobId":"2664","Queue":"q_x86_expr","Cluster":"aip","CPU_Hours":0.11333333333333,"User":"simforgetest2","Mem_GB_Hours":0.016803741455078,"runTime":0.0047222222222222,"JobDescription":"Caravan-V03c-2400k-main-shell16-10ms.k","GPU_Cost":0,"CPU_Cost":0.11333333333333,"Mem_Cost":0,"App_Cost":0},{"EndDate":"2020\/06\/30","GPU_Hours":0,"App":"Abaqus","JobName":"cubevnc","JobId":"2586","Queue":"q_x86_expr","Cluster":"aip","CPU_Hours":4.2569444444444,"User":"simforgetest2","Mem_GB_Hours":0.635986328125,"runTime":4.2569444444444,"JobDescription":"testaba01","GPU_Cost":0,"CPU_Cost":4.2569444444444,"Mem_Cost":0,"App_Cost":0},{"EndDate":"2020\/06\/30","GPU_Hours":0,"App":"ICEM-CFD","JobName":"cubevnc","JobId":"2602","Queue":"q_x86_expr","Cluster":"aip","CPU_Hours":4.1591666666667,"User":"simforgetest2","Mem_GB_Hours":0.39169311523438,"runTime":4.1591666666667,"JobDescription":"ICEMtest","GPU_Cost":0,"CPU_Cost":4.1591666666667,"Mem_Cost":0,"App_Cost":0},{"EndDate":"2020\/06\/30","GPU_Hours":0,"App":"TankSim","JobName":"cubevnc","JobId":"2595","Queue":"q_x86_expr","Cluster":"aip","CPU_Hours":4.37,"User":"simforgetest2","Mem_GB_Hours":0.23148345947266,"runTime":4.37,"JobDescription":"Tanktest01","GPU_Cost":0,"CPU_Cost":4.37,"Mem_Cost":0,"App_Cost":0},{"EndDate":"2020\/06\/30","GPU_Hours":0,"App":"LSPrePost","JobName":"cubevnc","JobId":"2578","Queue":"q_x86_expr","Cluster":"aip","CPU_Hours":4.7172222222222,"User":"simforgetest2","Mem_GB_Hours":1.3783493041992,"runTime":4.7172222222222,"JobDescription":"test01","GPU_Cost":0,"CPU_Cost":4.7172222222222,"Mem_Cost":0,"App_Cost":0},{"EndDate":"2020\/06\/30","GPU_Hours":0,"App":"ParaView","JobName":"cubevnc","JobId":"2580","Queue":"q_x86_expr","Cluster":"aip","CPU_Hours":4.6608333333333,"User":"simforgetest2","Mem_GB_Hours":0.55901718139648,"runTime":4.6608333333333,"JobDescription":"test03","GPU_Cost":0,"CPU_Cost":4.6608333333333,"Mem_Cost":0,"App_Cost":0},{"EndDate":"2020\/06\/30","GPU_Hours":0,"App":"Abaqus","JobName":"cubevnc","JobId":"2678","Queue":"q_x86_expr","Cluster":"aip","CPU_Hours":0.013611111111111,"User":"simforgetest2","Mem_GB_Hours":0.48832321166992,"runTime":0.013611111111111,"JobDescription":"abaplugin","GPU_Cost":0,"CPU_Cost":0.013611111111111,"Mem_Cost":0,"App_Cost":0},{"EndDate":"2020\/06\/30","GPU_Hours":0,"App":"TankSim","JobName":"cubevnc","JobId":"2685","Queue":"q_x86_expr","Cluster":"aip","CPU_Hours":0.0052777777777778,"User":"simforgetest2","Mem_GB_Hours":0.11571884155273,"runTime":0.0052777777777778,"JobDescription":"Tanktest01","GPU_Cost":0,"CPU_Cost":0.0052777777777778,"Mem_Cost":0,"App_Cost":0}],"App_Cost":1.3333333333333,"CPU_Cost":23.728333333333,"Mem_Cost":0,"GPU_Cost":0,"Total_Cost":25.061666666667}