{"GPU_Hours":64.759166666667,"App_Hours":{"PointWise":{"Hours":0.020277777777778,"UnitPrice":5,"Cost":0.10138888888889},"Abaqus":{"Hours":86.938333333333,"UnitPrice":5,"Cost":434.69166666667},"TankSim":{"Hours":105.66111111111,"UnitPrice":1,"Cost":105.66111111111},"ParaView":{"Hours":1.9413888888889,"UnitPrice":0.5,"Cost":0.97069444444444},"Tanksimulator-MeshGenerate":{"Hours":2.3347222222222,"UnitPrice":0,"Cost":0},"Abaqus2017":{"Hours":3.1411111111111,"UnitPrice":5,"Cost":15.705555555556},"LSPrePost":{"Hours":56.325277777778,"UnitPrice":0,"Cost":0},"LS-DYNA":{"Hours":60.195555555556,"UnitPrice":5,"Cost":300.97777777778},"Fluent":{"Hours":1.3333333333333,"UnitPrice":5,"Cost":6.6666666666667},"ICEM-CFD":{"Hours":71.808055555556,"UnitPrice":5,"Cost":359.04027777778}},"Month":"2020-07","CPU_Hours":389.69916666667,"Users":{"simforge2":1467.2133152283},"Mem_GB_Hours":161.69009672695,"App_Cost":1223.8151388889,"Mem_Cost":16.169009672695,"GPU_Cost":32.379583333333,"Total_Cost":1467.2133152283,"CPU_Cost":194.84958333333,"Details":[{"EndDate":"2020\/07\/18","GPU_Hours":0,"App":"PointWise","JobName":"cubevnc","JobId":"4979","Queue":"local","Cluster":"aip","CPU_Hours":0.0086111111111111,"User":"simforge2","Mem_GB_Hours":0.0011300637986925,"runTime":0.0086111111111111,"JobDescription":"PW_test","GPU_Cost":0,"CPU_Cost":0.0043055555555556,"Mem_Cost":0.00011300637986925,"App_Cost":0.043055555555556},{"EndDate":"2020\/07\/18","GPU_Hours":0,"App":"PointWise","JobName":"cubevnc","JobId":"4980","Queue":"local","Cluster":"aip","CPU_Hours":0.011666666666667,"User":"simforge2","Mem_GB_Hours":0.0032985178629557,"runTime":0.011666666666667,"JobDescription":"PW_test","GPU_Cost":0,"CPU_Cost":0.0058333333333333,"Mem_Cost":0.00032985178629557,"App_Cost":0.058333333333333},{"EndDate":"2020\/07\/19","GPU_Hours":0,"App":"Abaqus","JobName":"cubevnc","JobId":"5107","Queue":"local","Cluster":"aip","CPU_Hours":0.013888888888889,"User":"simforge2","Mem_GB_Hours":0.0066567526923286,"runTime":0.013888888888889,"JobDescription":"abaqus02","GPU_Cost":0,"CPU_Cost":0.0069444444444444,"Mem_Cost":0.00066567526923286,"App_Cost":0.069444444444444},{"EndDate":"2020\/07\/19","GPU_Hours":0,"App":"Abaqus","JobName":"cubevnc","JobId":"5109","Queue":"local","Cluster":"aip","CPU_Hours":0.015277777777778,"User":"simforge2","Mem_GB_Hours":0.007295560836792,"runTime":0.015277777777778,"JobDescription":"abaqus02","GPU_Cost":0,"CPU_Cost":0.0076388888888889,"Mem_Cost":0.0007295560836792,"App_Cost":0.076388888888889},{"EndDate":"2020\/07\/19","GPU_Hours":0,"App":"Abaqus","JobName":"cubevnc","JobId":"5110","Queue":"local","Cluster":"aip","CPU_Hours":0.30194444444444,"User":"simforge2","Mem_GB_Hours":0.14561046918233,"runTime":0.30194444444444,"JobDescription":"abaqus01","GPU_Cost":0,"CPU_Cost":0.15097222222222,"Mem_Cost":0.014561046918233,"App_Cost":1.5097222222222},{"EndDate":"2020\/07\/19","GPU_Hours":0,"App":"Abaqus","JobName":"cubevnc","JobId":"5129","Queue":"local","Cluster":"aip","CPU_Hours":0.013888888888889,"User":"simforge2","Mem_GB_Hours":0.0067782931857639,"runTime":0.013888888888889,"JobDescription":"abaqus01","GPU_Cost":0,"CPU_Cost":0.0069444444444444,"Mem_Cost":0.00067782931857639,"App_Cost":0.069444444444444},{"EndDate":"2020\/07\/19","GPU_Hours":0,"App":"TankSim","JobName":"cubevnc","JobId":"5139","Queue":"local","Cluster":"aip","CPU_Hours":0.20222222222222,"User":"simforge2","Mem_GB_Hours":0.029710337320964,"runTime":0.20222222222222,"JobDescription":"tank01","GPU_Cost":0,"CPU_Cost":0.10111111111111,"Mem_Cost":0.0029710337320964,"App_Cost":0.20222222222222},{"EndDate":"2020\/07\/19","GPU_Hours":0,"App":"ParaView","JobName":"cubevnc","JobId":"5162","Queue":"local","Cluster":"aip","CPU_Hours":0.016666666666667,"User":"simforge2","Mem_GB_Hours":0.0059791564941406,"runTime":0.016666666666667,"JobDescription":"test1","GPU_Cost":0,"CPU_Cost":0.0083333333333333,"Mem_Cost":0.00059791564941406,"App_Cost":0.0083333333333333},{"EndDate":"2020\/07\/19","GPU_Hours":0,"App":"TankSim","JobName":"cubevnc","JobId":"5182","Queue":"local","Cluster":"aip","CPU_Hours":0.11861111111111,"User":"simforge2","Mem_GB_Hours":0.01794704331292,"runTime":0.11861111111111,"JobDescription":"tank01","GPU_Cost":0,"CPU_Cost":0.059305555555556,"Mem_Cost":0.001794704331292,"App_Cost":0.11861111111111},{"EndDate":"2020\/07\/19","GPU_Hours":0,"App":"ParaView","JobName":"cubevnc","JobId":"5164","Queue":"local","Cluster":"aip","CPU_Hours":1.9247222222222,"User":"simforge2","Mem_GB_Hours":0.69685129589505,"runTime":1.9247222222222,"JobDescription":"pv2","GPU_Cost":0,"CPU_Cost":0.96236111111111,"Mem_Cost":0.069685129589505,"App_Cost":0.96236111111111},{"EndDate":"2020\/07\/19","GPU_Hours":0,"App":"TankSim","JobName":"cubevnc","JobId":"5187","Queue":"local","Cluster":"aip","CPU_Hours":0.2375,"User":"simforge2","Mem_GB_Hours":0.039250230789185,"runTime":0.2375,"JobDescription":"tank01","GPU_Cost":0,"CPU_Cost":0.11875,"Mem_Cost":0.0039250230789185,"App_Cost":0.2375},{"EndDate":"2020\/07\/20","GPU_Hours":0,"App":"Tanksimulator-MeshGenerate","JobName":"","JobId":"5223","Queue":"local","Cluster":"aip","CPU_Hours":0.0175,"User":"simforge2","Mem_GB_Hours":0.0049379634857178,"runTime":0.0175,"JobDescription":"Study1","GPU_Cost":0,"CPU_Cost":0.00875,"Mem_Cost":0.00049379634857178,"App_Cost":0},{"EndDate":"2020\/07\/20","GPU_Hours":0,"App":"Tanksimulator-MeshGenerate","JobName":"","JobId":"5224","Queue":"local","Cluster":"aip","CPU_Hours":0.016944444444444,"User":"simforge2","Mem_GB_Hours":0,"runTime":0.016944444444444,"JobDescription":"Study1","GPU_Cost":0,"CPU_Cost":0.0084722222222222,"Mem_Cost":0,"App_Cost":0},{"EndDate":"2020\/07\/20","GPU_Hours":0,"App":"Tanksimulator-MeshGenerate","JobName":"","JobId":"5225","Queue":"local","Cluster":"aip","CPU_Hours":0.016666666666667,"User":"simforge2","Mem_GB_Hours":0.004702631632487,"runTime":0.016666666666667,"JobDescription":"Study1","GPU_Cost":0,"CPU_Cost":0.0083333333333333,"Mem_Cost":0.0004702631632487,"App_Cost":0},{"EndDate":"2020\/07\/20","GPU_Hours":0,"App":"Tanksimulator-MeshGenerate","JobName":"","JobId":"5227","Queue":"local","Cluster":"aip","CPU_Hours":0.056944444444444,"User":"simforge2","Mem_GB_Hours":0.013115660349528,"runTime":0.056944444444444,"JobDescription":"Study1","GPU_Cost":0,"CPU_Cost":0.028472222222222,"Mem_Cost":0.0013115660349528,"App_Cost":0},{"EndDate":"2020\/07\/20","GPU_Hours":0,"App":"TankSim","JobName":"cubevnc","JobId":"5189","Queue":"local","Cluster":"aip","CPU_Hours":14.364444444444,"User":"simforge2","Mem_GB_Hours":2.7113064236111,"runTime":14.364444444444,"JobDescription":"tank01","GPU_Cost":0,"CPU_Cost":7.1822222222222,"Mem_Cost":0.27113064236111,"App_Cost":14.364444444444},{"EndDate":"2020\/07\/20","GPU_Hours":0,"App":"TankSim","JobName":"cubevnc","JobId":"5188","Queue":"local","Cluster":"aip","CPU_Hours":14.511111111111,"User":"simforge2","Mem_GB_Hours":2.5842159695095,"runTime":14.511111111111,"JobDescription":"tanktest0719","GPU_Cost":0,"CPU_Cost":7.2555555555556,"Mem_Cost":0.25842159695095,"App_Cost":14.511111111111},{"EndDate":"2020\/07\/20","GPU_Hours":0,"App":"Tanksimulator-MeshGenerate","JobName":"","JobId":"5233","Queue":"q_x86_share","Cluster":"aip","CPU_Hours":0.38333333333333,"User":"simforge2","Mem_GB_Hours":0.0090149614546034,"runTime":0.031944444444444,"JobDescription":"Study1","GPU_Cost":0,"CPU_Cost":0.19166666666667,"Mem_Cost":0.00090149614546034,"App_Cost":0},{"EndDate":"2020\/07\/20","GPU_Hours":0,"App":"Tanksimulator-MeshGenerate","JobName":"","JobId":"5238","Queue":"q_x86_share","Cluster":"aip","CPU_Hours":0.25333333333333,"User":"simforge2","Mem_GB_Hours":0.0059581968519423,"runTime":0.021111111111111,"JobDescription":"Study1","GPU_Cost":0,"CPU_Cost":0.12666666666667,"Mem_Cost":0.00059581968519423,"App_Cost":0},{"EndDate":"2020\/07\/20","GPU_Hours":0,"App":"Tanksimulator-MeshGenerate","JobName":"","JobId":"5239","Queue":"q_x86_share","Cluster":"aip","CPU_Hours":0.39333333333333,"User":"simforge2","Mem_GB_Hours":0.0092505094740126,"runTime":0.032777777777778,"JobDescription":"Study1","GPU_Cost":0,"CPU_Cost":0.19666666666667,"Mem_Cost":0.00092505094740126,"App_Cost":0},{"EndDate":"2020\/07\/20","GPU_Hours":0,"App":"Abaqus2017","JobName":"Job-133820","JobId":"5241","Queue":"q_x86_share","Cluster":"aip","CPU_Hours":3.1411111111111,"User":"simforge2","Mem_GB_Hours":0.042878975338406,"runTime":1.5705555555556,"JobDescription":"Job-133820-e1","GPU_Cost":0,"CPU_Cost":1.5705555555556,"Mem_Cost":0.0042878975338406,"App_Cost":15.705555555556},{"EndDate":"2020\/07\/21","GPU_Hours":0,"App":"TankSim","JobName":"cubevnc","JobId":"5242","Queue":"local","Cluster":"aip","CPU_Hours":20.896388888889,"User":"simforge2","Mem_GB_Hours":3.6608377827538,"runTime":20.896388888889,"JobDescription":"tanktest0719","GPU_Cost":0,"CPU_Cost":10.448194444444,"Mem_Cost":0.36608377827538,"App_Cost":20.896388888889},{"EndDate":"2020\/07\/21","GPU_Hours":0,"App":"TankSim","JobName":"cubevnc","JobId":"5232","Queue":"local","Cluster":"aip","CPU_Hours":22.348055555556,"User":"simforge2","Mem_GB_Hours":4.0747452216678,"runTime":22.348055555556,"JobDescription":"tank01","GPU_Cost":0,"CPU_Cost":11.174027777778,"Mem_Cost":0.40747452216678,"App_Cost":22.348055555556},{"EndDate":"2020\/07\/21","GPU_Hours":0,"App":"LSPrePost","JobName":"cubevnc","JobId":"5222","Queue":"local","Cluster":"aip","CPU_Hours":23.541388888889,"User":"simforge2","Mem_GB_Hours":6.4121332147386,"runTime":23.541388888889,"JobDescription":"dynatest01","GPU_Cost":0,"CPU_Cost":11.770694444444,"Mem_Cost":0.64121332147386,"App_Cost":0},{"EndDate":"2020\/07\/21","GPU_Hours":0,"App":"TankSim","JobName":"cubevnc","JobId":"5284","Queue":"local","Cluster":"aip","CPU_Hours":0.50805555555556,"User":"simforge2","Mem_GB_Hours":0.075117970572578,"runTime":0.50805555555556,"JobDescription":"tanktest0719","GPU_Cost":0,"CPU_Cost":0.25402777777778,"Mem_Cost":0.0075117970572578,"App_Cost":0.50805555555556},{"EndDate":"2020\/07\/21","GPU_Hours":0.47888888888889,"App":"TankSim","JobName":"cubevnc","JobId":"5287","Queue":"local","Cluster":"aip","CPU_Hours":0.47888888888889,"User":"simforge2","Mem_GB_Hours":0.070769030253092,"runTime":0.47888888888889,"JobDescription":"tanknew01","GPU_Cost":0.23944444444444,"CPU_Cost":0.23944444444444,"Mem_Cost":0.0070769030253092,"App_Cost":0.47888888888889},{"EndDate":"2020\/07\/21","GPU_Hours":0,"App":"LS-DYNA","JobName":"\/home\/export\/base\/nsccwuxi_amd\/simforge2\/WORK\/Caravan-V03c-2400k-main-shell16-10ms.k","JobId":"5288","Queue":"q_x86_share","Cluster":"aip","CPU_Hours":26.302222222222,"User":"simforge2","Mem_GB_Hours":0.013467695448134,"runTime":1.1955555555556,"JobDescription":"Caravan-V03c-2400k-main-shell16-10ms.k","GPU_Cost":0,"CPU_Cost":13.151111111111,"Mem_Cost":0.0013467695448134,"App_Cost":131.51111111111},{"EndDate":"2020\/07\/21","GPU_Hours":0,"App":"Fluent","JobName":"cubevnc","JobId":"5301","Queue":"q_x86_share","Cluster":"aip","CPU_Hours":0.13333333333333,"User":"simforge2","Mem_GB_Hours":0.00013291041056315,"runTime":0.0027777777777778,"JobDescription":"fluent_test","GPU_Cost":0,"CPU_Cost":0.066666666666667,"Mem_Cost":1.3291041056315e-5,"App_Cost":0.66666666666667},{"EndDate":"2020\/07\/21","GPU_Hours":0,"App":"Fluent","JobName":"cubevnc","JobId":"5302","Queue":"q_x86_share","Cluster":"aip","CPU_Hours":1.2,"User":"simforge2","Mem_GB_Hours":0.0017986297607422,"runTime":0.025,"JobDescription":"fluent_test","GPU_Cost":0,"CPU_Cost":0.6,"Mem_Cost":0.00017986297607422,"App_Cost":6},{"EndDate":"2020\/07\/21","GPU_Hours":0,"App":"Tanksimulator-MeshGenerate","JobName":"","JobId":"5308","Queue":"q_x86_share","Cluster":"aip","CPU_Hours":1.1966666666667,"User":"simforge2","Mem_GB_Hours":0.057367743386163,"runTime":0.099722222222222,"JobDescription":"testmonpoint","GPU_Cost":0,"CPU_Cost":0.59833333333333,"Mem_Cost":0.0057367743386163,"App_Cost":0},{"EndDate":"2020\/07\/21","GPU_Hours":0,"App":"LS-DYNA","JobName":"\/home\/export\/base\/nsccwuxi_amd\/simforge2\/WORK\/Caravan-V03c-2400k-main-shell16-10ms.k","JobId":"5307","Queue":"q_x86_share","Cluster":"aip","CPU_Hours":33.893333333333,"User":"simforge2","Mem_GB_Hours":0.0079542011684842,"runTime":0.70611111111111,"JobDescription":"Caravan-V03c-2400k-main-shell16-10ms.k","GPU_Cost":0,"CPU_Cost":16.946666666667,"Mem_Cost":0.00079542011684842,"App_Cost":169.46666666667},{"EndDate":"2020\/07\/22","GPU_Hours":0,"App":"ICEM-CFD","JobName":"cubevnc","JobId":"5163","Queue":"local","Cluster":"aip","CPU_Hours":71.795833333333,"User":"simforge2","Mem_GB_Hours":16.617630720139,"runTime":71.795833333333,"JobDescription":"2","GPU_Cost":0,"CPU_Cost":35.897916666667,"Mem_Cost":1.6617630720139,"App_Cost":358.97916666667},{"EndDate":"2020\/07\/22","GPU_Hours":31.995833333333,"App":"TankSim","JobName":"cubevnc","JobId":"5291","Queue":"local","Cluster":"aip","CPU_Hours":31.995833333333,"User":"simforge2","Mem_GB_Hours":6.0202121098836,"runTime":31.995833333333,"JobDescription":"tankgr","GPU_Cost":15.997916666667,"CPU_Cost":15.997916666667,"Mem_Cost":0.60202121098836,"App_Cost":31.995833333333},{"EndDate":"2020\/07\/22","GPU_Hours":32.272222222222,"App":"Abaqus","JobName":"cubevnc","JobId":"5289","Queue":"local","Cluster":"aip","CPU_Hours":32.272222222222,"User":"simforge2","Mem_GB_Hours":13.756911256578,"runTime":32.272222222222,"JobDescription":"abaqus02","GPU_Cost":16.136111111111,"CPU_Cost":16.136111111111,"Mem_Cost":1.3756911256578,"App_Cost":161.36111111111},{"EndDate":"2020\/07\/22","GPU_Hours":0,"App":"Abaqus","JobName":"cubevnc","JobId":"5240","Queue":"local","Cluster":"aip","CPU_Hours":54.321111111111,"User":"simforge2","Mem_GB_Hours":35.395629700555,"runTime":54.321111111111,"JobDescription":"abaqus01","GPU_Cost":0,"CPU_Cost":27.160555555556,"Mem_Cost":3.5395629700555,"App_Cost":271.60555555556},{"EndDate":"2020\/07\/22","GPU_Hours":0,"App":"LSPrePost","JobName":"cubevnc","JobId":"5286","Queue":"local","Cluster":"aip","CPU_Hours":32.783888888889,"User":"simforge2","Mem_GB_Hours":69.176901959313,"runTime":32.783888888889,"JobDescription":"dynatest01","GPU_Cost":0,"CPU_Cost":16.391944444444,"Mem_Cost":6.9176901959313,"App_Cost":0},{"EndDate":"2020\/07\/24","GPU_Hours":0.012222222222222,"App":"ICEM-CFD","JobName":"cubevnc","JobId":"5741","Queue":"local","Cluster":"aip","CPU_Hours":0.012222222222222,"User":"simforge2","Mem_GB_Hours":0.0025975672403971,"runTime":0.012222222222222,"JobDescription":"ICEMCFD_test","GPU_Cost":0.0061111111111111,"CPU_Cost":0.0061111111111111,"Mem_Cost":0.00025975672403971,"App_Cost":0.061111111111111}],"User":"simforge2"}