{"GPU_Hours":70.300555555556,"App_Hours":{"PointWise":{"Hours":0.20611111111111,"UnitPrice":5,"Cost":1.0305555555556},"Abaqus":{"Hours":87.555833333333,"UnitPrice":5,"Cost":437.77916666667},"ParaView":{"Hours":14.3675,"UnitPrice":0.5,"Cost":7.18375},"Abaqus2017":{"Hours":4.265,"UnitPrice":5,"Cost":21.325},"LS-DYNA":{"Hours":29.383888888889,"UnitPrice":5,"Cost":146.91944444444},"LSPrePost":{"Hours":81.253611111111,"UnitPrice":0,"Cost":0},"Fluent":{"Hours":3.4180555555556,"UnitPrice":5,"Cost":17.090277777778},"StarCCM":{"Hours":6.4988888888889,"UnitPrice":5,"Cost":32.494444444444},"TankSim":{"Hours":76.809722222222,"UnitPrice":1,"Cost":76.809722222222}},"Month":"2020-07","CPU_Hours":303.75861111111,"Users":{"simforge25":943.14628559695},"Mem_GB_Hours":154.84341152509,"App_Cost":740.63236111111,"Mem_Cost":15.484341152509,"GPU_Cost":35.150277777778,"Total_Cost":943.14628559695,"CPU_Cost":151.87930555556,"Details":[{"EndDate":"2020\/07\/19","GPU_Hours":0,"App":"PointWise","JobName":"cubevnc","JobId":"5159","Queue":"local","Cluster":"aip","CPU_Hours":0.0825,"User":"simforge25","Mem_GB_Hours":0.024604225158691,"runTime":0.0825,"JobDescription":"test1","GPU_Cost":0,"CPU_Cost":0.04125,"Mem_Cost":0.0024604225158691,"App_Cost":0.4125},{"EndDate":"2020\/07\/20","GPU_Hours":0,"App":"Abaqus","JobName":"cubevnc","JobId":"5207","Queue":"local","Cluster":"aip","CPU_Hours":0.24333333333333,"User":"simforge25","Mem_GB_Hours":0.10435029347738,"runTime":0.24333333333333,"JobDescription":"abaqustest01","GPU_Cost":0,"CPU_Cost":0.12166666666667,"Mem_Cost":0.010435029347738,"App_Cost":1.2166666666667},{"EndDate":"2020\/07\/20","GPU_Hours":0,"App":"ParaView","JobName":"cubevnc","JobId":"5158","Queue":"local","Cluster":"aip","CPU_Hours":13.906388888889,"User":"simforge25","Mem_GB_Hours":8.7097417958577,"runTime":13.906388888889,"JobDescription":"25","GPU_Cost":0,"CPU_Cost":6.9531944444444,"Mem_Cost":0.87097417958577,"App_Cost":6.9531944444444},{"EndDate":"2020\/07\/20","GPU_Hours":0,"App":"ParaView","JobName":"cubevnc","JobId":"5211","Queue":"local","Cluster":"aip","CPU_Hours":0.24694444444444,"User":"simforge25","Mem_GB_Hours":0.12453010876973,"runTime":0.24694444444444,"JobDescription":"25","GPU_Cost":0,"CPU_Cost":0.12347222222222,"Mem_Cost":0.012453010876973,"App_Cost":0.12347222222222},{"EndDate":"2020\/07\/20","GPU_Hours":0,"App":"ParaView","JobName":"cubevnc","JobId":"5213","Queue":"local","Cluster":"aip","CPU_Hours":0.21416666666667,"User":"simforge25","Mem_GB_Hours":0.084496259689331,"runTime":0.21416666666667,"JobDescription":"25","GPU_Cost":0,"CPU_Cost":0.10708333333333,"Mem_Cost":0.0084496259689331,"App_Cost":0.10708333333333},{"EndDate":"2020\/07\/20","GPU_Hours":0,"App":"Abaqus2017","JobName":"Job-101713","JobId":"5215","Queue":"q_x86_share","Cluster":"aip","CPU_Hours":0.023888888888889,"User":"simforge25","Mem_GB_Hours":0.00013350380791558,"runTime":0.011944444444444,"JobDescription":"Job-101713-Model-1","GPU_Cost":0,"CPU_Cost":0.011944444444444,"Mem_Cost":1.3350380791558e-5,"App_Cost":0.11944444444444},{"EndDate":"2020\/07\/21","GPU_Hours":0,"App":"LS-DYNA","JobName":"\/home\/export\/base\/nsccwuxi_amd\/simforge25\/WORK\/Caravan-V03c-2400k-main-shell16-10ms.k","JobId":"5314","Queue":"q_x86_share","Cluster":"aip","CPU_Hours":0.85333333333333,"User":"simforge25","Mem_GB_Hours":0.00020087348090278,"runTime":0.017777777777778,"JobDescription":"Caravan-V03c-2400k-main-shell16-10ms.k","GPU_Cost":0,"CPU_Cost":0.42666666666667,"Mem_Cost":2.0087348090278e-5,"App_Cost":4.2666666666667},{"EndDate":"2020\/07\/21","GPU_Hours":0,"App":"LSPrePost","JobName":"cubevnc","JobId":"5208","Queue":"local","Cluster":"aip","CPU_Hours":29.253333333333,"User":"simforge25","Mem_GB_Hours":38.621309814453,"runTime":29.253333333333,"JobDescription":"LStest01","GPU_Cost":0,"CPU_Cost":14.626666666667,"Mem_Cost":3.8621309814453,"App_Cost":0},{"EndDate":"2020\/07\/21","GPU_Hours":0,"App":"LS-DYNA","JobName":"\/home\/export\/base\/nsccwuxi_amd\/simforge25\/WORK\/Caravan-V03c-2400k-main-shell16-10ms.k","JobId":"5318","Queue":"q_x86_share","Cluster":"aip","CPU_Hours":0.28,"User":"simforge25","Mem_GB_Hours":6.5911610921224e-5,"runTime":0.0058333333333333,"JobDescription":"Caravan-V03c-2400k-main-shell16-10ms.k","GPU_Cost":0,"CPU_Cost":0.14,"Mem_Cost":6.5911610921224e-6,"App_Cost":1.4},{"EndDate":"2020\/07\/21","GPU_Hours":0,"App":"LS-DYNA","JobName":"\/home\/export\/base\/nsccwuxi_amd\/simforge25\/WORK\/Caravan-V03c-2400k-main-shell16-10ms.k","JobId":"5319","Queue":"q_x86_share","Cluster":"aip","CPU_Hours":28.073333333333,"User":"simforge25","Mem_GB_Hours":0,"runTime":1.1697222222222,"JobDescription":"Caravan-V03c-2400k-main-shell16-10ms.k","GPU_Cost":0,"CPU_Cost":14.036666666667,"Mem_Cost":0,"App_Cost":140.36666666667},{"EndDate":"2020\/07\/21","GPU_Hours":0.12361111111111,"App":"PointWise","JobName":"cubevnc","JobId":"5415","Queue":"local","Cluster":"aip","CPU_Hours":0.12361111111111,"User":"simforge25","Mem_GB_Hours":0.042920419904921,"runTime":0.12361111111111,"JobDescription":"PW_test","GPU_Cost":0.061805555555556,"CPU_Cost":0.061805555555556,"Mem_Cost":0.0042920419904921,"App_Cost":0.61805555555556},{"EndDate":"2020\/07\/21","GPU_Hours":0,"App":"Fluent","JobName":"cubevnc","JobId":"5417","Queue":"q_x86_share","Cluster":"aip","CPU_Hours":1.6,"User":"simforge25","Mem_GB_Hours":0.00252685546875,"runTime":0.033333333333333,"JobDescription":"fluent_test","GPU_Cost":0,"CPU_Cost":0.8,"Mem_Cost":0.000252685546875,"App_Cost":8},{"EndDate":"2020\/07\/21","GPU_Hours":0,"App":"StarCCM","JobName":"cubevnc","JobId":"5419","Queue":"q_x86_expr_plus","Cluster":"aip","CPU_Hours":1.5833333333333,"User":"simforge25","Mem_GB_Hours":0.0056260808308919,"runTime":0.063333333333333,"JobDescription":"starccm_test","GPU_Cost":0,"CPU_Cost":0.79166666666667,"Mem_Cost":0.00056260808308919,"App_Cost":7.9166666666667},{"EndDate":"2020\/07\/21","GPU_Hours":0,"App":"StarCCM","JobName":"cubevnc","JobId":"5420","Queue":"q_x86_expr_plus","Cluster":"aip","CPU_Hours":0.02,"User":"simforge25","Mem_GB_Hours":0.0065502548217773,"runTime":0.01,"JobDescription":"starccm_test2","GPU_Cost":0,"CPU_Cost":0.01,"Mem_Cost":0.00065502548217773,"App_Cost":0.1},{"EndDate":"2020\/07\/21","GPU_Hours":0,"App":"StarCCM","JobName":"cubevnc","JobId":"5421","Queue":"q_x86_expr_plus","Cluster":"aip","CPU_Hours":0.175,"User":"simforge25","Mem_GB_Hours":0.026358814239502,"runTime":0.035,"JobDescription":"starccm_test2","GPU_Cost":0,"CPU_Cost":0.0875,"Mem_Cost":0.0026358814239502,"App_Cost":0.875},{"EndDate":"2020\/07\/21","GPU_Hours":0,"App":"StarCCM","JobName":"cubevnc","JobId":"5422","Queue":"q_x86_expr_plus","Cluster":"aip","CPU_Hours":0.13361111111111,"User":"simforge25","Mem_GB_Hours":0.0068615881601969,"runTime":0.010277777777778,"JobDescription":"starccm_test2","GPU_Cost":0,"CPU_Cost":0.066805555555556,"Mem_Cost":0.00068615881601969,"App_Cost":0.66805555555556},{"EndDate":"2020\/07\/22","GPU_Hours":10.811666666667,"App":"TankSim","JobName":"cubevnc","JobId":"5447","Queue":"local","Cluster":"aip","CPU_Hours":10.811666666667,"User":"simforge25","Mem_GB_Hours":1.6488633028666,"runTime":10.811666666667,"JobDescription":"tanktest02","GPU_Cost":5.4058333333333,"CPU_Cost":5.4058333333333,"Mem_Cost":0.16488633028666,"App_Cost":10.811666666667},{"EndDate":"2020\/07\/22","GPU_Hours":0,"App":"TankSim","JobName":"cubevnc","JobId":"5209","Queue":"local","Cluster":"aip","CPU_Hours":58.647222222222,"User":"simforge25","Mem_GB_Hours":10.882703696357,"runTime":58.647222222222,"JobDescription":"tanktest","GPU_Cost":0,"CPU_Cost":29.323611111111,"Mem_Cost":1.0882703696357,"App_Cost":58.647222222222},{"EndDate":"2020\/07\/22","GPU_Hours":0,"App":"Abaqus","JobName":"cubevnc","JobId":"5214","Queue":"local","Cluster":"aip","CPU_Hours":57.725555555556,"User":"simforge25","Mem_GB_Hours":27.305264142354,"runTime":57.725555555556,"JobDescription":"abaqustest01","GPU_Cost":0,"CPU_Cost":28.862777777778,"Mem_Cost":2.7305264142354,"App_Cost":288.62777777778},{"EndDate":"2020\/07\/22","GPU_Hours":0,"App":"LSPrePost","JobName":"cubevnc","JobId":"5317","Queue":"local","Cluster":"aip","CPU_Hours":29.572777777778,"User":"simforge25","Mem_GB_Hours":36.966423467,"runTime":29.572777777778,"JobDescription":"LStest01","GPU_Cost":0,"CPU_Cost":14.786388888889,"Mem_Cost":3.6966423467,"App_Cost":0},{"EndDate":"2020\/07\/23","GPU_Hours":0,"App":"LS-DYNA","JobName":"\/home\/export\/online3\/simforge25\/dyna\/can\/4.2_Buckling_of_Beer_Can.key","JobId":"5627","Queue":"q_x86_share","Cluster":"aip","CPU_Hours":0.17722222222222,"User":"simforge25","Mem_GB_Hours":0.0023847632937961,"runTime":0.088611111111111,"JobDescription":"4.2_Buckling_of_Beer_Can.key","GPU_Cost":0,"CPU_Cost":0.088611111111111,"Mem_Cost":0.00023847632937961,"App_Cost":0.88611111111111},{"EndDate":"2020\/07\/23","GPU_Hours":0,"App":"Abaqus2017","JobName":"Job-104904","JobId":"5633","Queue":"q_x86_expr","Cluster":"aip","CPU_Hours":1.9977777777778,"User":"simforge25","Mem_GB_Hours":0.025930171542697,"runTime":0.99888888888889,"JobDescription":"Job-104904-e1","GPU_Cost":0,"CPU_Cost":0.99888888888889,"Mem_Cost":0.0025930171542697,"App_Cost":9.9888888888889},{"EndDate":"2020\/07\/24","GPU_Hours":22.4275,"App":"LSPrePost","JobName":"cubevnc","JobId":"5624","Queue":"local","Cluster":"aip","CPU_Hours":22.4275,"User":"simforge25","Mem_GB_Hours":8.198651599884,"runTime":22.4275,"JobDescription":"lsdynalight","GPU_Cost":11.21375,"CPU_Cost":11.21375,"Mem_Cost":0.8198651599884,"App_Cost":0},{"EndDate":"2020\/07\/24","GPU_Hours":22.441388888889,"App":"Abaqus","JobName":"cubevnc","JobId":"5623","Queue":"local","Cluster":"aip","CPU_Hours":22.441388888889,"User":"simforge25","Mem_GB_Hours":14.407418921789,"runTime":22.441388888889,"JobDescription":"AbaiGPU02","GPU_Cost":11.220694444444,"CPU_Cost":11.220694444444,"Mem_Cost":1.4407418921789,"App_Cost":112.20694444444},{"EndDate":"2020\/07\/24","GPU_Hours":0,"App":"StarCCM","JobName":"cubevnc","JobId":"5671","Queue":"q_x86_share_plus","Cluster":"aip","CPU_Hours":4.5869444444444,"User":"simforge25","Mem_GB_Hours":0.060694169998169,"runTime":0.093611111111111,"JobDescription":"starccm_test","GPU_Cost":0,"CPU_Cost":2.2934722222222,"Mem_Cost":0.0060694169998169,"App_Cost":22.934722222222},{"EndDate":"2020\/07\/24","GPU_Hours":0.050833333333333,"App":"TankSim","JobName":"cubevnc","JobId":"5626","Queue":"local","Cluster":"aip","CPU_Hours":0.050833333333333,"User":"simforge25","Mem_GB_Hours":0.0074875926971436,"runTime":0.050833333333333,"JobDescription":"tankafter01","GPU_Cost":0.025416666666667,"CPU_Cost":0.025416666666667,"Mem_Cost":0.00074875926971436,"App_Cost":0.050833333333333},{"EndDate":"2020\/07\/24","GPU_Hours":0.0044444444444444,"App":"TankSim","JobName":"cubevnc","JobId":"5721","Queue":"local","Cluster":"aip","CPU_Hours":0.0044444444444444,"User":"simforge25","Mem_GB_Hours":0.00037041558159722,"runTime":0.0044444444444444,"JobDescription":"tanktest03","GPU_Cost":0.0022222222222222,"CPU_Cost":0.0022222222222222,"Mem_Cost":3.7041558159722e-5,"App_Cost":0.0044444444444444},{"EndDate":"2020\/07\/24","GPU_Hours":0,"App":"Abaqus2017","JobName":"Job-135729","JobId":"5761","Queue":"q_x86_expr","Cluster":"aip","CPU_Hours":1.7533333333333,"User":"simforge25","Mem_GB_Hours":0.022519963582357,"runTime":0.87666666666667,"JobDescription":"Job-135729-e1","GPU_Cost":0,"CPU_Cost":0.87666666666667,"Mem_Cost":0.0022519963582357,"App_Cost":8.7666666666667},{"EndDate":"2020\/07\/24","GPU_Hours":0,"App":"Abaqus2017","JobName":"Job-145334","JobId":"5773","Queue":"q_x86_expr","Cluster":"aip","CPU_Hours":0.49,"User":"simforge25","Mem_GB_Hours":0.0063104248046875,"runTime":0.245,"JobDescription":"Job-145334-qiuxiao","GPU_Cost":0,"CPU_Cost":0.245,"Mem_Cost":0.00063104248046875,"App_Cost":2.45},{"EndDate":"2020\/07\/24","GPU_Hours":0,"App":"Fluent","JobName":"cubevnc","JobId":"5768","Queue":"q_x86_share","Cluster":"aip","CPU_Hours":1.8180555555556,"User":"simforge25","Mem_GB_Hours":0.1615932252672,"runTime":1.8180555555556,"JobDescription":"fluent","GPU_Cost":0,"CPU_Cost":0.90902777777778,"Mem_Cost":0.01615932252672,"App_Cost":9.0902777777778},{"EndDate":"2020\/07\/24","GPU_Hours":7.1455555555556,"App":"Abaqus","JobName":"cubevnc","JobId":"5722","Queue":"local","Cluster":"aip","CPU_Hours":7.1455555555556,"User":"simforge25","Mem_GB_Hours":6.0514141676161,"runTime":7.1455555555556,"JobDescription":"AbaiGPU02","GPU_Cost":3.5727777777778,"CPU_Cost":3.5727777777778,"Mem_Cost":0.60514141676161,"App_Cost":35.727777777778},{"EndDate":"2020\/07\/24","GPU_Hours":7.2955555555556,"App":"TankSim","JobName":"cubevnc","JobId":"5625","Queue":"local","Cluster":"aip","CPU_Hours":7.2955555555556,"User":"simforge25","Mem_GB_Hours":1.3351047007243,"runTime":7.2955555555556,"JobDescription":"tanktest","GPU_Cost":3.6477777777778,"CPU_Cost":3.6477777777778,"Mem_Cost":0.13351047007243,"App_Cost":7.2955555555556}],"User":"simforge25"}