{
 "User": "huangy",
 "Queues": "all",
 "Clusters": [
  "aip"
 ],
 "Month": "2020-12",
 "CPU_Hours": 5.90320886760389,
 "Mem_GB_Hours": 4.284777688928032,
 "GPU_Hours": 5.789875534270557,
 "App_Cost": 1.4333546081763888,
 "CPU_Cost": 2.951604433801945,
 "Mem_Cost": 0,
 "GPU_Cost": 2.8949377671352785,
 "Total_Cost": 12.222218434183334,
 "App_Hours": {
  "Abaqus": {
   "Hours": 0.17333758830194446,
   "Cost": 0.8666879415097223
  },
  "LS-DYNA": {
   "Hours": 0.11333333333333334,
   "Cost": 0.5666666666666667
  },
  "LSPrePost": {
   "Hours": 5.616537945968611,
   "Cost": 0
  }
 },
 "Details": [
  {
   "CPU_Hours": 3.095636350436111,
   "Mem_GB_Hours": 3.199096589845778,
   "GPU_Hours": 3.095636350436111,
   "Runtime": 3.095636350436111,
   "App_Hours": 3.095636350436111,
   "JobId": "19551",
   "Queue": "local",
   "User": "huangy",
   "App": "LSPrePost",
   "JobDescription": "HY",
   "JobName": "cubevnc",
   "Cluster": "aip",
   "CPU_Cost": 1.5478181752180555,
   "Mem_Cost": 0,
   "GPU_Cost": 1.5478181752180555,
   "App_Cost": 0,
   "StartDate": "2020/12/05",
   "Project": "default"
  },
  {
   "CPU_Hours": 2.5209015955325,
   "Mem_GB_Hours": 0.9997046401959907,
   "GPU_Hours": 2.5209015955325,
   "Runtime": 2.5209015955325,
   "App_Hours": 2.5209015955325,
   "JobId": "19557",
   "Queue": "local",
   "User": "huangy",
   "App": "LSPrePost",
   "JobDescription": "1",
   "JobName": "cubevnc",
   "Cluster": "aip",
   "CPU_Cost": 1.26045079776625,
   "Mem_Cost": 0,
   "GPU_Cost": 1.26045079776625,
   "App_Cost": 0,
   "StartDate": "2020/12/05",
   "Project": "default"
  },
  {
   "CPU_Hours": 0.16694869941305557,
   "Mem_GB_Hours": 0.08264733231630372,
   "GPU_Hours": 0.16694869941305557,
   "Runtime": 0.16694869941305557,
   "App_Hours": 0.16694869941305557,
   "JobId": "19549",
   "Queue": "local",
   "User": "huangy",
   "App": "Abaqus",
   "JobDescription": "123",
   "JobName": "cubevnc",
   "Cluster": "aip",
   "CPU_Cost": 0.08347434970652778,
   "Mem_Cost": 0,
   "GPU_Cost": 0.08347434970652778,
   "App_Cost": 0.8347434970652778,
   "StartDate": "2020/12/05",
   "Project": "default"
  },
  {
   "CPU_Hours": 0.006388888888888889,
   "Mem_GB_Hours": 0.0032689242892795143,
   "GPU_Hours": 0.006388888888888889,
   "Runtime": 0.006388888888888889,
   "App_Hours": 0.006388888888888889,
   "JobId": "19548",
   "Queue": "local",
   "User": "huangy",
   "App": "Abaqus",
   "JobDescription": "123",
   "JobName": "cubevnc",
   "Cluster": "aip",
   "CPU_Cost": 0.0031944444444444446,
   "Mem_Cost": 0,
   "GPU_Cost": 0.0031944444444444446,
   "App_Cost": 0.03194444444444445,
   "StartDate": "2020/12/05",
   "Project": "default"
  },
  {
   "CPU_Hours": 0.11333333333333334,
   "Mem_GB_Hours": 0.00006020228068033854,
   "GPU_Hours": 0,
   "Runtime": 0.004722222222222222,
   "App_Hours": 0.11333333333333334,
   "JobId": "19554",
   "Queue": "q_x86_expr",
   "User": "huangy",
   "App": "LS-DYNA",
   "JobDescription": "Combine.key",
   "JobName": "/home/export/online3/huangy/jobdata/default/HY/Combine.key",
   "Cluster": "aip",
   "CPU_Cost": 0.05666666666666667,
   "Mem_Cost": 0,
   "GPU_Cost": 0,
   "App_Cost": 0.5666666666666667,
   "StartDate": "2020/12/05",
   "Project": "default"
  }
 ]
}