; English translation file
; Each page has its own group below

; Global - used in numerous/all pages
NAVIGATION_DROPDOWN_OFFSET="-98%"
SKYFORM_WEB_INTERFACE="Web Interface"
OK="OK"
RESET="Reset"

; Job Submission General - used in various job submission pages
SUBMIT_A_JOB="Submit a Job"
JOB_NAME="Job name"
CLUSTER_PARAMETERS="Parameters"
CPUS="CPUs"
MEMORY_ARCHITECTURE="Memory Architecture"
QUEUE="Queue"					; also used in jobs.php, queue.php, reports.php
SKYFORM_PARAMETERS="Scheduler Parameters"
DATA_FILES="Data Files"
INPUT_DECK="Input Deck"
SELECT_SERVER_FILE="Select Server File"
SELECT_SERVER_DIR="Select Server Directory"
PROJECT="Project"					; also used in job.php, jobs.php
SUBMIT="Submit"

; ABAQUS
ADDITIONAL_ABAQUS_OPTIONS="ABAQUS options"
INP_INPUT_FILE=".inp Input File"

; ANSYS
ADDITIONAL_ANSYS_OPTIONS="ANSYS options"
COMPUTING_INPUT_FILE="Computing Input File"
LOAD_CASE_INPUT_FILE="Load Case Input File"

; FLUENT
SOLVER="Solver"
ADDITIONAL_FLUENT_OPTIONS="FLUENT options"
FLUENT_JOURNAL_FILE="FLUENT Journal File"
CAS_INPUT_FILE="CAS Input File"
DIMENSION="Dimension"
DISPLAY_OPTIONS="Display Options"
DISPLAY_MESH_AFTER_READING="Display Mesh After Reading"
OPTIONS="Options"
DOUBLE_PRECISION="Double Precision"
MESHING_MODE="Meshing Mode"
POST_ONLY="Pre/Post Only"
DIRECTORY="Directory"
WORKING_DIR="Working Directory"

; LS-DYNA
VERSION="Version"
ADDITIONAL_LS-DYNA_OPTIONS="LS-DYNA options"
PRECISION="Precision"
RESTART_JOB_USING_D3DUMP_FILE="Restart Job Using d3dump File"
LS-DYNA_WORKING_DIRECTORY="LS-DYNA working directory"

; NASTRAN
ADDITIONAL_NASTRAN_OPTIONS="NASTRAN options"

; OptiStruct
ADDITIONAL_OPTISTRUCT_OPTIONS="OptiStruct options"

; StarCCM+
ADDITIONAL_STARCCMP_OPTIONS="Star-CCM+ options"

; Simpack
SPCK_FILE="Simpack File"
ADDITIONAL_SIMPACK_OPTIONS="Simpack options"

; Generic
COMMAND_TO_RUN="Command to run"
SUBMIT_TO_THE_QUEUE="Submit to the queue"
REQUIRED_RESOURCES="Required Resources"
RESOURCE_REQUIREMENT_STRING="Resource requirement spec"
MINIMUM_REQUIRED_PROCESSORS="Minimum Num of tasks"
MAXIMUM_REQUIRED_PROCESSORS="Maximum Num of tasks"
NUMBER_OF_PROCESSORS_PER_HOST="Number of tasks per host"
RUN_LIMITS="Run Limits"
MAXIMUM_RUNTIME="Maximum runtime"
HOUR="hour"
MINUTE="minute"
MAXIMUM_MEMORY_TO_USE="Maximum memory to use"
INPUT_OUTPUT="Input/Output"
INPUT_FILE="Input file"
OUTPUT_FILE="Output file"
OTHER_OPTIONS="Other Options"
ADDITIONAL_SUB_OPTIONS="Additional job submission options"

;TensorFlow
JOBSPEC="Job Parameters"
MAINPROG="main program"
OTHERRESOURCE="Other resource requirements"
PER_TASK="Per task"
PARAMETERS="Parameters"
DATA_DIR="Data Directory"
MODEL_DIR="Model Directory"
TRAIN_STEPS="Training Steps"
ENV_VAR="Environment Variables"
VAR_NAME="Variable Name"
VAR_VALUE="Value"
MEMORY="Memory Requirement"
CONTAINER_IMAGE="The image of the docker container"
CONTAINER_OPTIONS="Docker container run options"
;MXNet
DMLC_INTERFACE="NIC for mxnet communication"
PROGPARAM="paramters of main program"
; vis
VIS_NOT_CONFIGURED="Visualization queue is not configured in visqueue.cfg"
VIS_SUBMITTED_TO="Job will be submitted to the queue"

; bills
MONTH="Month"
MEMORY_USE="Memory"
RUN_BILLS="Generate bills"
BILL="Usage"
CORE="Core"
HOURS=" Hours"
UNIT="Unit"
QUANTITY="Amount"
BILLDETAIL="Details"
ENDDATE="End Date"
APP_NAME="Application"

; dashboard
CLUSTER="Cluster"
CLUSTER_NAME="Cluster name"
MASTER_HOST="Master host"
PRIMARY_ADMINISTRATOR="Primary administrator"
LS_STATUS="GPU Status"
HOST_STATUS="Host Status"
SLOT_UTILIZATION="Cluster Utilization"
NUMBER_OF_JOBS_BY_QUEUE="Number of Jobs in Top 10 Queues"
NUMBER_OF_JOBS_BY_USER="Number of Jobs by Top 10 Users"
SHARED_RESOURCES="Cluster Resources"
RESOURCE="Resource"				; also used in queue.php
TOTAL="Total"					; also used in host.php
RESERVED="Reserved"				; also used in host.php
LOCATION="Location"
RECONFIGURE_THE_SCHEDULER="Reconfigure the Scheduler"
MY_FILES="My Files"				; also used in files.php
; flot charts
BUSY="Busy"
EXE_DOWN="RES Down"
UNAVAILABLE="Unavailable"
OK_CHART="OK"
CLOSED="Closed"
PROBLEM="Problem"
FULL="Full"
USED="Used"
AVAILABLE="Available"
PENDING="Waiting"				; also used in job.php
RUNNING="Running"				; also used in job.php
SUSPENDED="Stopped"
TIME="Time"
CPU_STATUS="CPU Status"
NUM_PENDING_USERS="Number of Users with Pending Jobs"
NUM_RUNNING_USERS="Number of Users with Running Jobs"
PENDING_JOBS="Pending Jobs"
RUNNING_JOBS="Running Jobs"
PEND_HOUR="Pending Hours"
RUN_HOUR="Running Hours"

; fileexplore
SELECT="Select"
NAME="Name"
LAST_MODIFIED="Last Modified"
SIZE="Size"

; files

; haction
QUEUE_OPERATION="Queue Operation"

; host
HOST="Host"
OPEN="Open"
CLOSE="Close"
JOB_LIST="Job List"				; also used in job.php, queue.php
HOST_UTILIZATION_AND_SLOT_LIMITS="Host Utilization & Slot Limits"
SLOTS="Slots"					; also used in hosts.php, queue.php, queues.php, users.php
TOTAL_NUM_JOBS="Total Num Jobs"			; also used in queue.php, queues.php, users.php
NUM_RUNNING_JOBS="Num Running Jobs"		; also used in queue.php, queues.php, users.php
NUM_SUSP_JOBS="Num Susp. Jobs"			; also used in queue.php, queues.php, users.php
NUM_RESERVED_JOB_SLOTS="Num Reserved Job Slots"	; also used in users.php
MAX_JOB_SLOTS="Max. Job Slots"			; also used in queue.php, queues.php, users.php
JOB_SLOT_LIMIT_PER_USER="Job Slot Limit Per User"	; also used in queue.php, queues.php
DISPATCH_WINDOW="Dispatch Window"
CPU_FACTOR="CPU Factor"
CURRENT_LOAD_USED_FOR_SCHEDULING="Current Load Used for Scheduling"
THRESHOLD="Threshold"				; also used in queue.php
SCHEDULE="Schedule"				; also used in queue.php
STOP="Stop"					; also used in queue.php
SHARED_RESOURCES_USED_FOR_SCHEDULING="Shared Resources Used for Scheduling"
LOAD_THRESHOLD_USED_FOR_SCHEDULING="Load Threshold Used for Scheduling"
CONFIGURATION="Configuration"
HOST_TYPE="Host Type"
HOST_MODEL="Host Model"
NUMBER_OF_CPUS="Number of CPUs"
MAXIMUM_MEMORY="Maximum Memory"
MAXIMUM_SWAP="Maximum Swap"
SERVER="Server"
RESOURCES="Resources"
OPEN_HOST="Open host"
CLOSE_HOST="Close host"
LOAD_INDEX="Load Index"

; hosts
HOST_NAME="Host Name"
STATUS="Status"					; also used in job.php, jobs.php, queues.php
TOTAL_NUM_JOBS="Total Num Jobs"
R1M="r1m"
UT="CPU Usage"
MEM="Free Mem(MB)"
PG="Paging Rate(pg/s)"
GPU="Available GPU"
NETIO="Network IO(KB/s)"

; job
JOB="Job"
SUSPEND="Stop"
RESUME="Resume"
RERUN="Rerun"
KILL="Kill"
JOB_STATUS="Job Status"
JOB_ID="Job ID"					; also used in jobs.php
PENDING_REASONS="Waiting Reasons"
SUBMITTED="Submitted"
STARTED="Started"
SUSPENSION_REASONS="Suspension Reasons"
SUBMISSION_PARAMETERS="Submission Parameters"
JOB_COMMAND="Job Command"
JOB_QUEUE="Job Queue"
SUBMITTED_BY_THE_USER="Submitted by the User"
CURRENT_WORKING_DIR="Current Working Dir"
RESOURCE_REQUIREMENT="Resource Requirement"	; also used in queue.php
REQUIRED_PROCESSORS="Required Processors"
INPUT_FILES="Input Files"
OUTPUT_FILES="Output Files"
REQUESTED_HOSTS="Requested Hosts"
JOB_EXECUTION_HOSTS="Job Execution Hosts"
RESOURCE_USAGE="Resource Usage"
PROCESS_GROUP_ID="Process Group ID"
PROCESS_ID="Process ID"
ENDED="Ended"
EXIT_STATUS="Exit Status"
JOB_OUTPUT="Job Output"
SUSPEND_JOB="Stop job"
RESUME_JOB="Resume job"
RERUN_JOB="Rerun job"
KILL_JOB="Kill job"
JOB_DESCRIPTION="Job Description"
NTHREADS="Number of Threads"
TASKS="Task Data"
TASK="Task"
COMPONENT="Component"
; statuses
SPACE_ON=" on"					; do not keep the space if your language does not use spaces between words
 NULL="Null"					; a whitespace a day keeps the keywords away
SUSPENDED_WHILE_PENDING="Stopped while waiting"
WAITING="Waiting"
SUSPENDED_BY_SKYFORM="Stopped by the scheduler"
SUSPENDED_WHILE_RUNNING="Stopped while running"
ZOMBIE="Zombie"
EXITED="Exited"
DONE="Done"
UNKNOWN="Unknown"
ERROR="Error"
JOB_FILE="Data Files"
MEM_USAGE="Memory Usage(GB)"
SWAP_USAGE="Swap Usage(GB)"
MEM_UT="Memory Utilization"

; jobaction
JOB_ACTION="Job Action"

; jobs
BY_THE_USER=" by the User"			; these spaces are necessary
IN_THE_QUEUE=" in the Queue"			; to keep the formatting of
ON_THE_HOST=" on the Host"			; the title on jobs.php
USER="User"					; also used in reports.php
FROM_HOST="From"
JOB_NAME_TITLE="Job Name"			; camelcase, not lowercase
SUBMIT_TIME="Submit Time"
START_TIME="Start Time"
FINISH_TIME="Finish Time"
JOBNOTSHOW="Some jobs are not shown due to limited privilege"
DESKTOP="Remote Desktop"

; login
ENTERPRISE_EDITION="Enterprise Portal"
USER_ROOT_IS_NOT_ALLOWED_TO_LOGIN_HERE="User root is not allowed to login here"
INVALID_LICENSE="Invalid license"
INVALID_USERNAME_PASSWORD="Invalid username/password"
USERNAME="Username"
PASSWORD="Password"
LANGUAGE="Language"
LOGIN="Login"
INVALID_ENVIRONMENT="Invalid AIP Environment"

; menu
DASHBOARD="Dashboard"				; also used in dashboard.php
JOB_SUBMISSION="Job Submission"			; also used in job submission pages
APPLICATIONS="Applications"
GENERIC="Generic"
MONITOR="Monitoring"
JOBS="Jobs"					; also used in jobs.php
QUEUES="Queues"					; also used in queues.php
HOSTS="Hosts"					; also used in hosts.php, reports.php, queue.php
USERS="Users"					; also used in queue.php, users.php
FILES="Files"					; also used in files.php, dashboard.php
REPORTS="Reports"				; also used in reports.php
REPORTLIST="Report List"
RUNREPORT="Run Report"
REPORTDETAIL="Report Detail"
VISUAL="Remote visual session"
BILLS="Monthly Usages"

; navigation
TOGGLE_NAVIGATION="Toggle navigation"
CHANGE_LANGUAGE="Change Language"
LOG_OUT="Log Out"

; noreports
NOT_AUTHORIZED_RUN_REPORTS="You are not authorized to run reports."

; qaction
QUEUE_OPERATION="Queue Operation"

; queue
ACTIVATE="Activate"
INACTIVATE="Inactivate"
OPEN="Open"
CLOSE="Close"
QUEUE_STATUS="Queue Status"
QUEUE_UTILIZATION_AND_SLOT_LIMITS="Queue Utilization & Slot Limits"
NUM_PENDING_JOBS="Num Waiting Jobs"		; also used in queues.php, users.php
JOB_SLOT_LIMIT_PER_CORE="Job Slot Limit Per Core"	; also used in queues.php, users.php
JOB_SLOT_LIMIT_PER_HOST="Job Slot Limit Per Host"	; also used in queues.php
RESOURCE_LIMITS="Resource Limits"
CPU_TIME="CPU Time"
FILE_SIZE="File Size"
DATA_SEGMENT_SIZE="Data Segment Size"
STACK_SIZE="Stack Size"
MEMORY_SIZE="Memory Size"
RUN_TIME="Run Time"
SEC="sec"					; seconds
NUM_OF_PROCESSES="Num of Processes"
UNLIMITED="Unlimited"
LOAD_THRESHOLD="Load Threshold"
CONFIGURED_PARAMETERS="Configured Parameters"
PRIORITY="Priority"				; also used in queues.php
DEFAULT_HOST="Default Host"
RUN_WINDOWS="Run Windows"
DISPATCH_WINDOWS="Dispatch Windows"
ADMINISTRATORS="Administrators"
JOB_ACCEPTANCE_INTERVAL="Job Acceptance Interval"
MIGRATION_THRESHOLD="Migration Threshold"
NEW_JOB_SCHEDULE_DELAY="New Job Schedule Delay"
MAX_SLOT_RESERVE_TIME="Max Slot Reserve Time"
RESUME_CONDITION="Resume Condition"
STOP_CONDITION="Stop Condition"
CONFIGURED_POLICIES="Configured Policies"
POLICIES="Policies"
JOB_SUSPEND_CONTROLS="Job Stop Controls"
JOB_RESUME_CONTROLS="Job Resume Controls"
JOB_TERMINATE_CONTROLS="Job Terminate Controls"
TERMINATE_INSTEAD_OF_SUSPEND_BY="Terminate Instead of Stop by"
USER_SHARES="User Shares"
TOTAL_SLOTS="Total Slots"
FREE_SLOTS="Free Slots"
USER_GROUP="User/Group"				; also used in users.php
SHARES="Shares"
ACTIVATE_QUEUE="Activate queue"
INACTIVATE_QUEUE="Inactivate queue"
OPEN_QUEUE="Open Queue"
CLOSE_QUEUE="Close Queue"

; queues
QUEUE_NAME="Queue Name"

; reconfig
RECONFIGURING_THE_SCHEDULER="Reconfiguring The Scheduler"
BACK="Back"

; reports
TIME_PERIOD="Time Period"
LAST_24_HOURS="Last 24 hours"
LAST_7_DAYS="Last 7 days"
LAST_MONTH="Last month"
LAST_QUARTER="Last quarter"
CUSTOM="Custom"
FROM_DATE="From"
TO="To"
REPORT_TYPE="Report Type"
JOB_SLOT_USAGE="Job slot usage"
JOB_THROUGHPUT="Job throughput"
EXITED_JOBS="Exited jobs"
SCHEDULING_ACTIVITIES="Scheduling activities"
CHARGE_BACK="Charge back"
ALL="all"
HOSTS="Hosts"
DATA_DIRECTORY="Data Directory"
LEAVE_BLANK_FOR_THE_CURRENT_SKYFORM_SYSTEM="leave blank for the current workload management system"
RUN_REPORTS="Run reports"

; users

; man
MAN_PAGES="Man Pages"
COMMAND="Commands"
CONFIG="Configuration Files"
DAEMON="Server Processes/Daemons"
