; Chinese (Simplified) translation file
; Each page has its own group below

; Global - used in numerous/all pages
NAVIGATION_DROPDOWN_OFFSET="-153%";
SKYFORM_WEB_INTERFACE="企业版门户"
OK="确认"
RESET="重置"

; Job Submission General - used in various job submission pages
SUBMIT_A_JOB="递交作业"
JOB_NAME="作业名"
CLUSTER_PARAMETERS="参数"
CPUS="CPU"
MEMORY_ARCHITECTURE="内存架构"
QUEUE="队列"					; also used in jobs.php, queue.php, reports.php
SKYFORM_PARAMETERS="作业调度器参数"
DATA_FILES="数据文件"
INPUT_DECK="输入Deck"
SELECT_SERVER_FILE="选择服务器上的文件"
SELECT_SERVER_DIR="选择服务器上的文件目录"
PROJECT="项目名"					; also used in jobs.php
SUBMIT="递交"

; ABAQUS
ADDITIONAL_ABAQUS_OPTIONS="ABAQUS选项"
INP_INPUT_FILE=".inp输入文件"

; ANSYS
ADDITIONAL_ANSYS_OPTIONS="ANSYS选项"
COMPUTING_INPUT_FILE="所计算的输入文件"
LOAD_CASE_INPUT_FILE="Load Case输入文件"

; FLUENT
SOLVER="求解器"
ADDITIONAL_FLUENT_OPTIONS="FLUENT选项"
FLUENT_JOURNAL_FILE="FLUENT Journal文件"
CAS_INPUT_FILE="CAS输入文件"

; LS-DYNA
VERSION="版本"
ADDITIONAL_LS-DYNA_OPTIONS="LS-DYNA选项"
PRECISION="精度"
RESTART_JOB_USING_D3DUMP_FILE="使用d3dump文件断点重启"
LS-DYNA_WORKING_DIRECTORY="LS-DYNA工作目录"
DIMENSION="维度"
DISPLAY_OPTIONS="显示选项"
DISPLAY_MESH_AFTER_READING="读后显示网格"
OPTIONS="选项"
DOUBLE_PRECISION="双精度"
MESHING_MODE="网格方式"
POST_ONLY="只做前后处理"
DIRECTORY="路径"
WORKING_DIR="工作路径"

; Simpack
SPCK_FILE="Simpack输入文件"
ADDITIONAL_SIMPACK_OPTIONS="Simpack选项"

; NASTRAN
ADDITIONAL_NASTRAN_OPTIONS="NASTRAN选项"

; OptiStruct
ADDITIONAL_OPTISTRUCT_OPTIONS="OptiStruct选项"

; StarCCM+
ADDITIONAL_STARCCMP_OPTIONS="Star-CCM+选项"

; Generic
COMMAND_TO_RUN="要运行的命令行"
SUBMIT_TO_THE_QUEUE="递交到队列"
REQUIRED_RESOURCES="所需资源"
RESOURCE_REQUIREMENT_STRING="资源需求表达式"
MINIMUM_REQUIRED_PROCESSORS="最少任务数"
MAXIMUM_REQUIRED_PROCESSORS="最多任务数"
NUMBER_OF_PROCESSORS_PER_HOST="每个主机任务数"
RUN_LIMITS="作业运行上限"
MAXIMUM_RUNTIME="最长运行时间"
HOUR="时"
MINUTE="分"
MAXIMUM_MEMORY_TO_USE="最大所用内存"
INPUT_OUTPUT="输入输出"
INPUT_FILE="输入文件"
OUTPUT_FILE="输出文件"
OTHER_OPTIONS="其他选项"
ADDITIONAL_SUB_OPTIONS="更多作业递交选项"

;TensorFlow
JOBSPEC="作业参数"
MAINPROG="主程序"
OTHERRESOURCE="其它资源需求定义"
PER_TASK="每个任务所需"
PARAMETERS="参数"
DATA_DIR="数据目录" 
MODEL_DIR="模型目录" 
TRAIN_STEPS="训练步数"
ENV_VAR="环境变量"
VAR_NAME="变量名"
VAR_VALUE="变量值"
MEMORY="内存需求"
CONTAINER_IMAGE="Docker容器镜像"
CONTAINER_OPTIONS="Docker容器运行选项"

;MXNet
DMLC_INTERFACE="mxnet用的NIC "
PROGPARAM="主程序参数"


; vis
VIS_NOT_CONFIGURED="远程图形队列没有在visqueue.cfg中配置"
VIS_SUBMITTED_TO="作业将递交到队列"

; bills
MONTH="月份"
MEMORY_USE="内存"
RUN_BILLS="生成用量报表"
BILL="用量"
CORE="核"
HOURS="小时"
UNIT="单位"
QUANTITY="数量"
BILLDETAIL="详单"
ENDDATE="结束日期"
APP_NAME="应用"

; dashboard
CLUSTER="集群"
CLUSTER_NAME="集群名"
MASTER_HOST="调度主机"
PRIMARY_ADMINISTRATOR="第一管理员"
LS_STATUS="GPU状态"
HOST_STATUS="主机状态"
SLOT_UTILIZATION="集群利用率"
NUMBER_OF_JOBS_BY_QUEUE="TOP 10 队列作业数"
NUMBER_OF_JOBS_BY_USER="TOP 10 用户作业数"
SHARED_RESOURCES="集群资源"
RESOURCE="资源"				; also used in queue.php
TOTAL="总和"
RESERVED="保留"
LOCATION="位置"
RECONFIGURE_THE_SCHEDULER="配置调度器"
MY_FILES="我的文件"
; flot charts
BUSY="忙"
EXE_DOWN="RES不正常"
UNAVAILABLE="不可用"
OK_CHART="正常"
CLOSED="关闭"
PROBLEM="问题"
FULL="满"
USED="已用"
AVAILABLE="可用"
PENDING="等待"
RUNNING="运行"
SUSPENDED="停止"
TIME="时间"
CPU_STATUS="CPU 状态"
NUM_PENDING_USERS="有等待作业的用户数"
NUM_RUNNING_USERS="有运行作业的用户数"
PENDING_JOBS="等待作业"
RUNNING_JOBS="运行作业"
PEND_HOUR="等待时间(小时)"
RUN_HOUR="运行时间(小时)"

; fileexplore
SELECT="选择"
NAME="文件名"
LAST_MODIFIED="修改时间"
SIZE="文件大小"

; files

; haction
QUEUE_OPERATION="队列操作"

; host
HOST="主机"
OPEN="打开"
CLOSE="关闭"
JOB_LIST="作业列表"				; also used in job.php, queue.php
HOST_UTILIZATION_AND_SLOT_LIMITS="主机利用率和作业槽上限"
SLOTS="作业槽"					; also used in hosts.php, queue.php, queues.php, users.php
TOTAL_NUM_JOBS="总作业数"			; also used in queue.php, queues.php, users.php
NUM_RUNNING_JOBS="运行的作业数"		; also used in queue.php, queues.php, users.php
NUM_SUSP_JOBS="停止的作业数"			; also used in queue.php, queues.php, users.php
NUM_RESERVED_JOB_SLOTS="保留的作业槽数"	; also used in users.php
MAX_JOB_SLOTS="作业槽上限"			; also used in queue.php, queues.php, users.php
JOB_SLOT_LIMIT_PER_USER="每个用户最大作业槽数"	; also used in queue.php, queues.php
DISPATCH_WINDOW="调度时间窗"
CPU_FACTOR="CPU因子"
CURRENT_LOAD_USED_FOR_SCHEDULING="当前用于调度的负载"
THRESHOLD="阈值"
SCHEDULE="调度"
STOP="停"
SHARED_RESOURCES_USED_FOR_SCHEDULING="用于调度的共享资源"
LOAD_THRESHOLD_USED_FOR_SCHEDULING="用于调度的负载阈值"
CONFIGURATION="配置"
HOST_TYPE="主机类型"
HOST_MODEL="主机模板"
NUMBER_OF_CPUS="CPU数"
MAXIMUM_MEMORY="最大内存"
MAXIMUM_SWAP="最大SWAP"
SERVER="服务器"
RESOURCES="资源"
OPEN_HOST="打开主机"
CLOSE_HOST="关闭主机"
LOAD_INDEX="负载指数"

; hosts
HOST_NAME="主机名"
STATUS="状态"					; also used in job.php, jobs.php, queues.php
TOTAL_NUM_JOBS="作业槽数"
R1M="r1m"
UT="CPU利用率"
MEM="可用内存(MB)"
PG="Paging Rate(页/秒)"
GPU="可用GPU"
NETIO="网络IO(KB/s)"

; job
JOB="作业"
SUSPEND="停止"
RESUME="恢复"
RERUN="重运行"
KILL="杀掉"
JOB_STATUS="作业状态"
PENDING_REASONS="等待原因"
SUBMITTED="递交时间"
STARTED="开始运行"
SUSPENSION_REASONS="停止原因"
SUBMISSION_PARAMETERS="递交参数"
JOB_COMMAND="作业命令行"
JOB_QUEUE="队列"
SUBMITTED_BY_THE_USER="递交用户"
CURRENT_WORKING_DIR="工作路径"
RESOURCE_REQUIREMENT="请求的资源"
REQUIRED_PROCESSORS="请求的CPU数"
INPUT_FILES="输入文件"
OUTPUT_FILES="输出文件"
REQUESTED_HOSTS="请求的主机"
JOB_EXECUTION_HOSTS="作业运行主机"
RESOURCE_USAGE="资源使用"
PROCESS_GROUP_ID="进程组"
PROCESS_ID="进程ID"
ENDED="结束时间"
EXIT_STATUS="结束状态码"
JOB_OUTPUT="输出"
SUSPEND_JOB="停止作业"
RESUME_JOB="恢复作业"
RERUN_JOB="重运行作业"
KILL_JOB="杀掉作业"
JOB_DESCRIPTION="作业描述"
NTHREADS="线程数"
TASKS="任务信息"
TASK="任务"
COMPONENT="组件"
; statuses
SPACE_ON="在"
 NULL="无"					; a whitespace a day keeps the keywords away
SUSPENDED_WHILE_PENDING="等待时被停止"
RUNNING="正在运行"
SUSPENDED_BY_SKYFORM="被作业调度器停止"
SUSPENDED_WHILE_RUNNING="运行中被停止"
ZOMBIE="僵尸"
EXITED="退出"
DONE="完成"
UNKNOWN="未知"
ERROR="出错"
JOB_FILE="作业数据"
MEM_USAGE="内存使用量(GB)"
SWAP_USAGE="SWAP使用量(GB)"
MEM_UT="内存使用率"

; jobaction
JOB_ACTION="作业控制"

; jobs
BY_THE_USER="用户名"
IN_THE_QUEUE="队列名"
ON_THE_HOST="主机名"
JOB_ID="作业ID"
USER="用户"					; also used in reports.php
FROM_HOST="递交主机"
JOB_NAME_TITLE="作业名"				; camelcase, not lowercase
SUBMIT_TIME="递交时间"
START_TIME="开始运行时间"
FINISH_TIME="结束运行时间"
JOBNOTSHOW="本用户没有权限看到其他用户的作业"
DESKTOP="远程桌面"

; login
ENTERPRISE_EDITION="企业版门户"
USER_ROOT_IS_NOT_ALLOWED_TO_LOGIN_HERE="root用户无权登录"
INVALID_LICENSE="无效许可证"
INVALID_USERNAME_PASSWORD="用户名/密码不正确"
USERNAME="用户名"
PASSWORD="密码"
LANGUAGE="语言"
LOGIN="登录"
INVALID_ENVIRONMENT="AIP环境错误"

; menu
DASHBOARD="仪表盘"				; also used in dashboard.php
JOB_SUBMISSION="作业递交"			; also used in job submission pages
APPLICATIONS="应用"
GENERIC="通用"
MONITOR="监控"
JOBS="作业"					; also used in jobs.php
QUEUES="队列"					; also used in queues.php
HOSTS="主机"					; also used in hosts.php, reports.php
USERS="用户"					; also used in users.php
FILES="文件"					; also used in files.php
REPORTS="报表"				; also used in reports.php
REPORTLIST="报表列表"
RUNREPORT="生成报表"
REPORTDETAIL="报表详情"
VISUAL="远程图形终端"
BILLS="月用量"

; navigation
TOGGLE_NAVIGATION="切换导航"
CHANGE_LANGUAGE="修改语言"
LOG_OUT="退出"

; noreports
NOT_AUTHORIZED_RUN_REPORTS="你没有运行报表的权限"

; qaction
QUEUE_OPERATION="队列操作"

; queue
ACTIVATE="激活"
INACTIVATE="灭活"
OPEN="打开"
CLOSE="关闭"
QUEUE_STATUS="队列状态"
QUEUE_UTILIZATION_AND_SLOT_LIMITS="队列使用率和作业槽上限"
NUM_PENDING_JOBS="等待作业数"		; also used in queues.php, users.php
JOB_SLOT_LIMIT_PER_CORE="单核作业槽上限"	; also used in queues.php, users.php
JOB_SLOT_LIMIT_PER_HOST="单机作业槽上限"	; also used in queues.php
RESOURCE_LIMITS="资源上限"
CPU_TIME="CPU时间"
FILE_SIZE="文件"
DATA_SEGMENT_SIZE="数据段"
STACK_SIZE="堆栈"
MEMORY_SIZE="内存"
RUN_TIME="运行时间"
SEC="秒"						; seconds
NUM_OF_PROCESSES="进程数"
UNLIMITED="无限"
LOAD_THRESHOLD="负载阈值"
CONFIGURED_PARAMETERS="配置的参数"
PRIORITY="优先级"				; also used in queues.php
DEFAULT_HOST="缺省主机名"
RUN_WINDOWS="运行时间窗"
DISPATCH_WINDOWS="调度时间窗"
ADMINISTRATORS="管理员"
JOB_ACCEPTANCE_INTERVAL="作业接收间隔"
MIGRATION_THRESHOLD="迁移阈值"
NEW_JOB_SCHEDULE_DELAY="新作业调度延迟"
MAX_SLOT_RESERVE_TIME="最长作业槽保留时间"
RESUME_CONDITION="恢复条件"
STOP_CONDITION="暂停条件"
CONFIGURED_POLICIES="配置的策略"
POLICIES="策略"
JOB_SUSPEND_CONTROLS="作业停止控制"
JOB_RESUME_CONTROLS="作业恢复控制"
JOB_TERMINATE_CONTROLS="作业终止控制"
TERMINATE_INSTEAD_OF_SUSPEND_BY="在作业停止时终止作业"
USER_SHARES="用户分享值"
TOTAL_SLOTS="总作业槽数"
FREE_SLOTS="可用作业槽"
USER_GROUP="用户/组"				; also used in users.php
SHARES="分享值"
ACTIVATE_QUEUE="激活队列"
INACTIVATE_QUEUE="灭活队列"
OPEN_QUEUE="打开队列"
CLOSE_QUEUE="关闭队列"

; queues
QUEUE_NAME="队列名"

; reconfig
RECONFIGURING_THE_SCHEDULER="配置调度器"
BACK="后退"

; reports
TIME_PERIOD="时间段"
LAST_24_HOURS="过去24小时"
LAST_7_DAYS="过去7天"
LAST_MONTH="上个月"
LAST_QUARTER="上个季度"
CUSTOM="定制"
FROM_DATE="从"
TO="到"
REPORT_TYPE="报表类别"
JOB_SLOT_USAGE="作业槽使用情况"
JOB_THROUGHPUT="作业吞吐量"
EXITED_JOBS="退出/失败的作业"
SCHEDULING_ACTIVITIES="调度活动情况"
CHARGE_BACK="用于计费"
ALL="所有"
HOSTS="主机"
DATA_DIRECTORY="数据文件目录路径"
LEAVE_BLANK_FOR_THE_CURRENT_SKYFORM_SYSTEM="若是当前作业调度器系统则不填"
RUN_REPORTS="生成报表"

; users

; man
MAN_PAGES="手册页"
COMMAND="命令"
CONFIG="配置文件"
DAEMON="服务/守护进程"
