{"GPU_Hours":0,"App_Hours":{"StarCCM":{"Hours":1.8155555555556,"UnitPrice":0,"Cost":0},"Fluent":{"Hours":1.0725,"UnitPrice":10,"Cost":10.725},"Abaqus":{"Hours":164.91916666667,"UnitPrice":0,"Cost":0},"ParaView":{"Hours":120.90416666667,"UnitPrice":0,"Cost":0},"LSPrePost":{"Hours":52.202222222222,"UnitPrice":0,"Cost":0},"TankSim":{"Hours":28.622222222222,"UnitPrice":3,"Cost":85.866666666667},"Abaqus2017":{"Hours":4.5019444444444,"UnitPrice":0,"Cost":0},"LS-DYNA-R10double":{"Hours":0.25944444444444,"UnitPrice":0,"Cost":0},"PointWise":{"Hours":0.043611111111111,"UnitPrice":0,"Cost":0},"LS-DYNA":{"Hours":23.7,"UnitPrice":0,"Cost":0},"ICEM-CFD":{"Hours":7.1794444444444,"UnitPrice":0,"Cost":0}},"Month":"2020-07","CPU_Hours":405.22027777778,"Users":{"simforgetest2":501.81194444444},"Mem_GB_Hours":196.34220563041,"App_Cost":96.591666666667,"Mem_Cost":0,"GPU_Cost":0,"Total_Cost":501.81194444444,"CPU_Cost":405.22027777778,"Details":[{"EndDate":"2020\/07\/01","GPU_Hours":0,"App":"StarCCM","JobName":"cubevnc","JobId":"2756","Queue":"q_x86_expr","Cluster":"aip","CPU_Hours":0.038888888888889,"User":"simforgetest2","Mem_GB_Hours":0.0027831819322374,"runTime":0.038888888888889,"JobDescription":"starccm_test","GPU_Cost":0,"CPU_Cost":0.038888888888889,"Mem_Cost":0,"App_Cost":0},{"EndDate":"2020\/07\/01","GPU_Hours":0,"App":"StarCCM","JobName":"cubevnc","JobId":"2757","Queue":"q_x86_expr","Cluster":"aip","CPU_Hours":0.083333333333333,"User":"simforgetest2","Mem_GB_Hours":0.0014653205871582,"runTime":0.020833333333333,"JobDescription":"starccm_test","GPU_Cost":0,"CPU_Cost":0.083333333333333,"Mem_Cost":0,"App_Cost":0},{"EndDate":"2020\/07\/01","GPU_Hours":0,"App":"Fluent","JobName":"cubevnc","JobId":"2762","Queue":"q_x86_expr","Cluster":"aip","CPU_Hours":0.22916666666667,"User":"simforgetest2","Mem_GB_Hours":0.017749786376953,"runTime":0.22916666666667,"JobDescription":"fluent_test","GPU_Cost":0,"CPU_Cost":0.22916666666667,"Mem_Cost":0,"App_Cost":2.2916666666667},{"EndDate":"2020\/07\/01","GPU_Hours":0,"App":"Fluent","JobName":"cubevnc","JobId":"2764","Queue":"q_x86_share","Cluster":"aip","CPU_Hours":0.0055555555555556,"User":"simforgetest2","Mem_GB_Hours":7.9621209038628e-5,"runTime":0.0027777777777778,"JobDescription":"fluent_test","GPU_Cost":0,"CPU_Cost":0.0055555555555556,"Mem_Cost":0,"App_Cost":0.055555555555556},{"EndDate":"2020\/07\/01","GPU_Hours":0,"App":"Fluent","JobName":"cubevnc","JobId":"2765","Queue":"q_x86_expr","Cluster":"aip","CPU_Hours":0.014444444444444,"User":"simforgetest2","Mem_GB_Hours":0.00048613018459744,"runTime":0.0072222222222222,"JobDescription":"fluent1","GPU_Cost":0,"CPU_Cost":0.014444444444444,"Mem_Cost":0,"App_Cost":0.14444444444444},{"EndDate":"2020\/07\/01","GPU_Hours":0,"App":"Fluent","JobName":"cubevnc","JobId":"2766","Queue":"q_x86_expr","Cluster":"aip","CPU_Hours":0.022222222222222,"User":"simforgetest2","Mem_GB_Hours":0.00074920654296875,"runTime":0.011111111111111,"JobDescription":"fluent1","GPU_Cost":0,"CPU_Cost":0.022222222222222,"Mem_Cost":0,"App_Cost":0.22222222222222},{"EndDate":"2020\/07\/01","GPU_Hours":0,"App":"Fluent","JobName":"cubevnc","JobId":"2767","Queue":"q_x86_expr","Cluster":"aip","CPU_Hours":0.01,"User":"simforgetest2","Mem_GB_Hours":0.00033651351928711,"runTime":0.005,"JobDescription":"fluent1","GPU_Cost":0,"CPU_Cost":0.01,"Mem_Cost":0,"App_Cost":0.1},{"EndDate":"2020\/07\/01","GPU_Hours":0,"App":"Fluent","JobName":"cubevnc","JobId":"2768","Queue":"q_x86_expr","Cluster":"aip","CPU_Hours":0.049444444444444,"User":"simforgetest2","Mem_GB_Hours":0.0016640610165066,"runTime":0.024722222222222,"JobDescription":"fluent1","GPU_Cost":0,"CPU_Cost":0.049444444444444,"Mem_Cost":0,"App_Cost":0.49444444444444},{"EndDate":"2020\/07\/01","GPU_Hours":0,"App":"Fluent","JobName":"cubevnc","JobId":"2769","Queue":"q_x86_share","Cluster":"aip","CPU_Hours":0.0027777777777778,"User":"simforgetest2","Mem_GB_Hours":7.9663594563802e-5,"runTime":0.0027777777777778,"JobDescription":"fluent_test_2","GPU_Cost":0,"CPU_Cost":0.0027777777777778,"Mem_Cost":0,"App_Cost":0.027777777777778},{"EndDate":"2020\/07\/01","GPU_Hours":0,"App":"Fluent","JobName":"cubevnc","JobId":"2770","Queue":"q_x86_expr","Cluster":"aip","CPU_Hours":0.014444444444444,"User":"simforgetest2","Mem_GB_Hours":0.00048596488104926,"runTime":0.0072222222222222,"JobDescription":"fluent1","GPU_Cost":0,"CPU_Cost":0.014444444444444,"Mem_Cost":0,"App_Cost":0.14444444444444},{"EndDate":"2020\/07\/01","GPU_Hours":0,"App":"Fluent","JobName":"cubevnc","JobId":"2772","Queue":"q_x86_expr","Cluster":"aip","CPU_Hours":0.028333333333333,"User":"simforgetest2","Mem_GB_Hours":0.0010218175252279,"runTime":0.014166666666667,"JobDescription":"fluent1","GPU_Cost":0,"CPU_Cost":0.028333333333333,"Mem_Cost":0,"App_Cost":0.28333333333333},{"EndDate":"2020\/07\/01","GPU_Hours":0,"App":"Abaqus","JobName":"cubevnc","JobId":"2665","Queue":"q_x86_expr","Cluster":"aip","CPU_Hours":20.196388888889,"User":"simforgetest2","Mem_GB_Hours":11.327956557804,"runTime":20.196388888889,"JobDescription":"abatest02","GPU_Cost":0,"CPU_Cost":20.196388888889,"Mem_Cost":0,"App_Cost":0},{"EndDate":"2020\/07\/01","GPU_Hours":0,"App":"Abaqus","JobName":"cubevnc","JobId":"2826","Queue":"q_x86_expr","Cluster":"aip","CPU_Hours":0.013333333333333,"User":"simforgetest2","Mem_GB_Hours":0.0063839721679687,"runTime":0.013333333333333,"JobDescription":"abaqusnew01","GPU_Cost":0,"CPU_Cost":0.013333333333333,"Mem_Cost":0,"App_Cost":0},{"EndDate":"2020\/07\/01","GPU_Hours":0,"App":"ParaView","JobName":"cubevnc","JobId":"2689","Queue":"q_x86_expr","Cluster":"aip","CPU_Hours":19.216388888889,"User":"simforgetest2","Mem_GB_Hours":20.532208364275,"runTime":19.216388888889,"JobDescription":"test03","GPU_Cost":0,"CPU_Cost":19.216388888889,"Mem_Cost":0,"App_Cost":0},{"EndDate":"2020\/07\/01","GPU_Hours":0,"App":"Abaqus","JobName":"cubevnc","JobId":"2705","Queue":"q_x86_expr","Cluster":"aip","CPU_Hours":18.021111111111,"User":"simforgetest2","Mem_GB_Hours":10.472763476902,"runTime":18.021111111111,"JobDescription":"hot","GPU_Cost":0,"CPU_Cost":18.021111111111,"Mem_Cost":0,"App_Cost":0},{"EndDate":"2020\/07\/01","GPU_Hours":0,"App":"LSPrePost","JobName":"cubevnc","JobId":"2700","Queue":"q_x86_expr","Cluster":"aip","CPU_Hours":18.300277777778,"User":"simforgetest2","Mem_GB_Hours":5.9366440667046,"runTime":18.300277777778,"JobDescription":"multijob","GPU_Cost":0,"CPU_Cost":18.300277777778,"Mem_Cost":0,"App_Cost":0},{"EndDate":"2020\/07\/01","GPU_Hours":0,"App":"TankSim","JobName":"cubevnc","JobId":"2699","Queue":"q_x86_expr","Cluster":"aip","CPU_Hours":18.666944444444,"User":"simforgetest2","Mem_GB_Hours":3.4688626543681,"runTime":18.666944444444,"JobDescription":"Tanktest01","GPU_Cost":0,"CPU_Cost":18.666944444444,"Mem_Cost":0,"App_Cost":56.000833333333},{"EndDate":"2020\/07\/01","GPU_Hours":0,"App":"Abaqus","JobName":"cubevnc","JobId":"2680","Queue":"q_x86_expr","Cluster":"aip","CPU_Hours":19.878055555556,"User":"simforgetest2","Mem_GB_Hours":10.135727592044,"runTime":19.878055555556,"JobDescription":"abaplugin","GPU_Cost":0,"CPU_Cost":19.878055555556,"Mem_Cost":0,"App_Cost":0},{"EndDate":"2020\/07\/01","GPU_Hours":0,"App":"LSPrePost","JobName":"cubevnc","JobId":"2663","Queue":"q_x86_expr","Cluster":"aip","CPU_Hours":20.283055555556,"User":"simforgetest2","Mem_GB_Hours":7.4274125480652,"runTime":20.283055555556,"JobDescription":"display02","GPU_Cost":0,"CPU_Cost":20.283055555556,"Mem_Cost":0,"App_Cost":0},{"EndDate":"2020\/07\/01","GPU_Hours":0,"App":"ParaView","JobName":"cubevnc","JobId":"2615","Queue":"q_x86_expr","Cluster":"aip","CPU_Hours":23.627777777778,"User":"simforgetest2","Mem_GB_Hours":10.304975361294,"runTime":23.627777777778,"JobDescription":"pv02","GPU_Cost":0,"CPU_Cost":23.627777777778,"Mem_Cost":0,"App_Cost":0},{"EndDate":"2020\/07\/01","GPU_Hours":0,"App":"Abaqus","JobName":"cubevnc","JobId":"2831","Queue":"q_x86_expr","Cluster":"aip","CPU_Hours":0.023333333333333,"User":"simforgetest2","Mem_GB_Hours":0.01149897257487,"runTime":0.023333333333333,"JobDescription":"abatest04","GPU_Cost":0,"CPU_Cost":0.023333333333333,"Mem_Cost":0,"App_Cost":0},{"EndDate":"2020\/07\/01","GPU_Hours":0,"App":"Abaqus2017","JobName":"Job-114111","JobId":"2851","Queue":"q_x86_expr","Cluster":"aip","CPU_Hours":0.072222222222222,"User":"simforgetest2","Mem_GB_Hours":0.00060845481024848,"runTime":0.036111111111111,"JobDescription":"Job-114111-explicit","GPU_Cost":0,"CPU_Cost":0.072222222222222,"Mem_Cost":0,"App_Cost":0},{"EndDate":"2020\/07\/01","GPU_Hours":0,"App":"TankSim","JobName":"cubevnc","JobId":"2855","Queue":"q_x86_expr","Cluster":"aip","CPU_Hours":0.0052777777777778,"User":"simforgetest2","Mem_GB_Hours":0.00063316663106283,"runTime":0.0052777777777778,"JobDescription":"Tanktest01","GPU_Cost":0,"CPU_Cost":0.0052777777777778,"Mem_Cost":0,"App_Cost":0.015833333333333},{"EndDate":"2020\/07\/01","GPU_Hours":0,"App":"LS-DYNA-R10double","JobName":"\/home\/export\/base\/nsccwuxi_amd\/simforgetest2\/online1\/TestData\/TestData\/lsdyna\/can\/4.2_Buckling_of_Beer_Can.key","JobId":"2854","Queue":"q_x86_expr","Cluster":"aip","CPU_Hours":0.25944444444444,"User":"simforgetest2","Mem_GB_Hours":0.00218674659729,"runTime":0.12972222222222,"JobDescription":"4.2_Buckling_of_Beer_Can.key","GPU_Cost":0,"CPU_Cost":0.25944444444444,"Mem_Cost":0,"App_Cost":0},{"EndDate":"2020\/07\/01","GPU_Hours":0,"App":"PointWise","JobName":"cubevnc","JobId":"2867","Queue":"q_x86_expr","Cluster":"aip","CPU_Hours":0.043611111111111,"User":"simforgetest2","Mem_GB_Hours":0.014033566580878,"runTime":0.043611111111111,"JobDescription":"PW_test","GPU_Cost":0,"CPU_Cost":0.043611111111111,"Mem_Cost":0,"App_Cost":0},{"EndDate":"2020\/07\/01","GPU_Hours":0,"App":"StarCCM","JobName":"cubevnc","JobId":"2868","Queue":"q_x86_expr","Cluster":"aip","CPU_Hours":0.2,"User":"simforgetest2","Mem_GB_Hours":0.019492149353027,"runTime":0.025,"JobDescription":"starccm_test","GPU_Cost":0,"CPU_Cost":0.2,"Mem_Cost":0,"App_Cost":0},{"EndDate":"2020\/07\/01","GPU_Hours":0,"App":"TankSim","JobName":"cubevnc","JobId":"2870","Queue":"q_x86_expr","Cluster":"aip","CPU_Hours":0.0052777777777778,"User":"simforgetest2","Mem_GB_Hours":0.00063457594977485,"runTime":0.0052777777777778,"JobDescription":"Tanktest01","GPU_Cost":0,"CPU_Cost":0.0052777777777778,"Mem_Cost":0,"App_Cost":0.015833333333333},{"EndDate":"2020\/07\/01","GPU_Hours":0,"App":"TankSim","JobName":"cubevnc","JobId":"2871","Queue":"q_x86_expr","Cluster":"aip","CPU_Hours":0.0055555555555556,"User":"simforgetest2","Mem_GB_Hours":0.00064296722412109,"runTime":0.0055555555555556,"JobDescription":"tanklaunch","GPU_Cost":0,"CPU_Cost":0.0055555555555556,"Mem_Cost":0,"App_Cost":0.016666666666667},{"EndDate":"2020\/07\/01","GPU_Hours":0,"App":"StarCCM","JobName":"cubevnc","JobId":"2869","Queue":"q_x86_expr","Cluster":"aip","CPU_Hours":1.4933333333333,"User":"simforgetest2","Mem_GB_Hours":0.14931467692057,"runTime":0.18666666666667,"JobDescription":"starccm_test","GPU_Cost":0,"CPU_Cost":1.4933333333333,"Mem_Cost":0,"App_Cost":0},{"EndDate":"2020\/07\/01","GPU_Hours":0,"App":"TankSim","JobName":"cubevnc","JobId":"2872","Queue":"q_x86_expr","Cluster":"aip","CPU_Hours":0.0052777777777778,"User":"simforgetest2","Mem_GB_Hours":0.00062297927008735,"runTime":0.0052777777777778,"JobDescription":"tanklog01","GPU_Cost":0,"CPU_Cost":0.0052777777777778,"Mem_Cost":0,"App_Cost":0.015833333333333},{"EndDate":"2020\/07\/01","GPU_Hours":0,"App":"TankSim","JobName":"cubevnc","JobId":"2886","Queue":"q_x86_expr","Cluster":"aip","CPU_Hours":0.0052777777777778,"User":"simforgetest2","Mem_GB_Hours":0.00060987260606554,"runTime":0.0052777777777778,"JobDescription":"Tanktest01","GPU_Cost":0,"CPU_Cost":0.0052777777777778,"Mem_Cost":0,"App_Cost":0.015833333333333},{"EndDate":"2020\/07\/01","GPU_Hours":0,"App":"LSPrePost","JobName":"cubevnc","JobId":"2853","Queue":"q_x86_expr","Cluster":"aip","CPU_Hours":5.2283333333333,"User":"simforgetest2","Mem_GB_Hours":1.7554358927409,"runTime":5.2283333333333,"JobDescription":"multijob","GPU_Cost":0,"CPU_Cost":5.2283333333333,"Mem_Cost":0,"App_Cost":0},{"EndDate":"2020\/07\/01","GPU_Hours":0,"App":"TankSim","JobName":"cubevnc","JobId":"2887","Queue":"q_x86_expr","Cluster":"aip","CPU_Hours":0.054166666666667,"User":"simforgetest2","Mem_GB_Hours":0.0064714272816976,"runTime":0.054166666666667,"JobDescription":"tanklog01","GPU_Cost":0,"CPU_Cost":0.054166666666667,"Mem_Cost":0,"App_Cost":0.1625},{"EndDate":"2020\/07\/01","GPU_Hours":0,"App":"Abaqus","JobName":"cubevnc","JobId":"2827","Queue":"q_x86_expr","Cluster":"aip","CPU_Hours":6.3075,"User":"simforgetest2","Mem_GB_Hours":3.301533908844,"runTime":6.3075,"JobDescription":"abatest01","GPU_Cost":0,"CPU_Cost":6.3075,"Mem_Cost":0,"App_Cost":0},{"EndDate":"2020\/07\/01","GPU_Hours":0,"App":"Abaqus2017","JobName":"Job-172621","JobId":"2894","Queue":"q_x86_expr","Cluster":"aip","CPU_Hours":0.3425,"User":"simforgetest2","Mem_GB_Hours":0.00437819480896,"runTime":0.3425,"JobDescription":"Job-172621-qiuxiao","GPU_Cost":0,"CPU_Cost":0.3425,"Mem_Cost":0,"App_Cost":0},{"EndDate":"2020\/07\/01","GPU_Hours":0,"App":"Fluent","JobName":"cubevnc","JobId":"2902","Queue":"q_x86_expr","Cluster":"aip","CPU_Hours":0.0052777777777778,"User":"simforgetest2","Mem_GB_Hours":0.0003354983859592,"runTime":0.0052777777777778,"JobDescription":"flu1","GPU_Cost":0,"CPU_Cost":0.0052777777777778,"Mem_Cost":0,"App_Cost":0.052777777777778},{"EndDate":"2020\/07\/01","GPU_Hours":0,"App":"Fluent","JobName":"cubevnc","JobId":"2903","Queue":"q_x86_share","Cluster":"aip","CPU_Hours":0.015277777777778,"User":"simforgetest2","Mem_GB_Hours":8.0927742852105e-5,"runTime":0.0030555555555556,"JobDescription":"flu2","GPU_Cost":0,"CPU_Cost":0.015277777777778,"Mem_Cost":0,"App_Cost":0.15277777777778},{"EndDate":"2020\/07\/02","GPU_Hours":0,"App":"TankSim","JobName":"cubevnc","JobId":"2917","Queue":"q_x86_expr","Cluster":"aip","CPU_Hours":0.017777777777778,"User":"simforgetest2","Mem_GB_Hours":0.0020219590928819,"runTime":0.017777777777778,"JobDescription":"tanklaunch","GPU_Cost":0,"CPU_Cost":0.017777777777778,"Mem_Cost":0,"App_Cost":0.053333333333333},{"EndDate":"2020\/07\/02","GPU_Hours":0,"App":"TankSim","JobName":"cubevnc","JobId":"2918","Queue":"q_x86_expr","Cluster":"aip","CPU_Hours":0.012222222222222,"User":"simforgetest2","Mem_GB_Hours":0.0019848336113824,"runTime":0.012222222222222,"JobDescription":"tanktest02","GPU_Cost":0,"CPU_Cost":0.012222222222222,"Mem_Cost":0,"App_Cost":0.036666666666667},{"EndDate":"2020\/07\/02","GPU_Hours":0,"App":"Fluent","JobName":"cubevnc","JobId":"2942","Queue":"q_x86_expr","Cluster":"aip","CPU_Hours":0.0086111111111111,"User":"simforgetest2","Mem_GB_Hours":0.00061207135518392,"runTime":0.0086111111111111,"JobDescription":"fluent_test","GPU_Cost":0,"CPU_Cost":0.0086111111111111,"Mem_Cost":0,"App_Cost":0.086111111111111},{"EndDate":"2020\/07\/02","GPU_Hours":0,"App":"Abaqus","JobName":"cubevnc","JobId":"2893","Queue":"q_x86_expr","Cluster":"aip","CPU_Hours":23.3475,"User":"simforgetest2","Mem_GB_Hours":12.272346754074,"runTime":23.3475,"JobDescription":"abaqus1core","GPU_Cost":0,"CPU_Cost":23.3475,"Mem_Cost":0,"App_Cost":0},{"EndDate":"2020\/07\/02","GPU_Hours":0,"App":"Abaqus","JobName":"cubevnc","JobId":"2848","Queue":"q_x86_expr","Cluster":"aip","CPU_Hours":29.159166666667,"User":"simforgetest2","Mem_GB_Hours":16.11059975942,"runTime":29.159166666667,"JobDescription":"abatest04","GPU_Cost":0,"CPU_Cost":29.159166666667,"Mem_Cost":0,"App_Cost":0},{"EndDate":"2020\/07\/02","GPU_Hours":0,"App":"Abaqus","JobName":"cubevnc","JobId":"2832","Queue":"q_x86_expr","Cluster":"aip","CPU_Hours":29.56,"User":"simforgetest2","Mem_GB_Hours":14.718206176758,"runTime":29.56,"JobDescription":"abaplugin","GPU_Cost":0,"CPU_Cost":29.56,"Mem_Cost":0,"App_Cost":0},{"EndDate":"2020\/07\/02","GPU_Hours":0,"App":"Fluent","JobName":"cubevnc","JobId":"2959","Queue":"q_x86_share","Cluster":"aip","CPU_Hours":0.0027777777777778,"User":"simforgetest2","Mem_GB_Hours":0.00011184480455187,"runTime":0.0027777777777778,"JobDescription":"flu1","GPU_Cost":0,"CPU_Cost":0.0027777777777778,"Mem_Cost":0,"App_Cost":0.027777777777778},{"EndDate":"2020\/07\/02","GPU_Hours":0,"App":"Fluent","JobName":"cubevnc","JobId":"2960","Queue":"q_x86_share","Cluster":"aip","CPU_Hours":0.0027777777777778,"User":"simforgetest2","Mem_GB_Hours":7.3549482557509e-5,"runTime":0.0027777777777778,"JobDescription":"flu3","GPU_Cost":0,"CPU_Cost":0.0027777777777778,"Mem_Cost":0,"App_Cost":0.027777777777778},{"EndDate":"2020\/07\/03","GPU_Hours":0,"App":"Abaqus","JobName":"cubevnc","JobId":"2988","Queue":"q_x86_expr","Cluster":"aip","CPU_Hours":4.8391666666667,"User":"simforgetest2","Mem_GB_Hours":2.345909649531,"runTime":4.8391666666667,"JobDescription":"nomminmax01","GPU_Cost":0,"CPU_Cost":4.8391666666667,"Mem_Cost":0,"App_Cost":0},{"EndDate":"2020\/07\/07","GPU_Hours":0,"App":"ParaView","JobName":"cubevnc","JobId":"3266","Queue":"q_x86_expr","Cluster":"aip","CPU_Hours":1.0016666666667,"User":"simforgetest2","Mem_GB_Hours":0.93372448603312,"runTime":1.0016666666667,"JobDescription":"pv02","GPU_Cost":0,"CPU_Cost":1.0016666666667,"Mem_Cost":0,"App_Cost":0},{"EndDate":"2020\/07\/07","GPU_Hours":0,"App":"Fluent","JobName":"cubevnc","JobId":"3301","Queue":"q_x86_expr","Cluster":"aip","CPU_Hours":0.54444444444444,"User":"simforgetest2","Mem_GB_Hours":0.049706225925022,"runTime":0.54444444444444,"JobDescription":"fluent_test","GPU_Cost":0,"CPU_Cost":0.54444444444444,"Mem_Cost":0,"App_Cost":5.4444444444444},{"EndDate":"2020\/07\/07","GPU_Hours":0,"App":"Fluent","JobName":"cubevnc","JobId":"3303","Queue":"q_x86_expr","Cluster":"aip","CPU_Hours":0.11694444444444,"User":"simforgetest2","Mem_GB_Hours":0.010493344200982,"runTime":0.11694444444444,"JobDescription":"fluent_test","GPU_Cost":0,"CPU_Cost":0.11694444444444,"Mem_Cost":0,"App_Cost":1.1694444444444},{"EndDate":"2020\/07\/09","GPU_Hours":0,"App":"ParaView","JobName":"cubevnc","JobId":"3288","Queue":"q_x86_expr","Cluster":"aip","CPU_Hours":53.6475,"User":"simforgetest2","Mem_GB_Hours":27.106984176636,"runTime":53.6475,"JobDescription":"pv02","GPU_Cost":0,"CPU_Cost":53.6475,"Mem_Cost":0,"App_Cost":0},{"EndDate":"2020\/07\/10","GPU_Hours":0,"App":"Abaqus2017","JobName":"Job-105204","JobId":"3486","Queue":"q_x86_expr","Cluster":"aip","CPU_Hours":0.0083333333333333,"User":"simforgetest2","Mem_GB_Hours":4.9304962158203e-5,"runTime":0.0041666666666667,"JobDescription":"Job-105204-explicit","GPU_Cost":0,"CPU_Cost":0.0083333333333333,"Mem_Cost":0,"App_Cost":0},{"EndDate":"2020\/07\/10","GPU_Hours":0,"App":"Abaqus2017","JobName":"Job-105447","JobId":"3487","Queue":"q_x86_expr","Cluster":"aip","CPU_Hours":0.1,"User":"simforgetest2","Mem_GB_Hours":0.00059165954589844,"runTime":0.05,"JobDescription":"Job-105447-explicit","GPU_Cost":0,"CPU_Cost":0.1,"Mem_Cost":0,"App_Cost":0},{"EndDate":"2020\/07\/10","GPU_Hours":0,"App":"Abaqus2017","JobName":"Job-103624","JobId":"3480","Queue":"q_x86_expr","Cluster":"aip","CPU_Hours":3.9788888888889,"User":"simforgetest2","Mem_GB_Hours":0.011774532530043,"runTime":0.99472222222222,"JobDescription":"Job-103624-Model-1","GPU_Cost":0,"CPU_Cost":3.9788888888889,"Mem_Cost":0,"App_Cost":0},{"EndDate":"2020\/07\/10","GPU_Hours":0,"App":"LS-DYNA","JobName":"\/home\/export\/online1\/simforgetest2\/TestData\/TestData\/lsdyna\/Caravan-V03c-2400k-main-shell16-10ms.k","JobId":"3481","Queue":"q_x86_expr","Cluster":"aip","CPU_Hours":23.7,"User":"simforgetest2","Mem_GB_Hours":0.010833930969238,"runTime":0.9875,"JobDescription":"Caravan-V03c-2400k-main-shell16-10ms.k","GPU_Cost":0,"CPU_Cost":23.7,"Mem_Cost":0,"App_Cost":0},{"EndDate":"2020\/07\/10","GPU_Hours":0,"App":"Abaqus","JobName":"cubevnc","JobId":"3468","Queue":"q_x86_expr","Cluster":"aip","CPU_Hours":7.0355555555556,"User":"simforgetest2","Mem_GB_Hours":4.4001207817925,"runTime":7.0355555555556,"JobDescription":"abaqus1core","GPU_Cost":0,"CPU_Cost":7.0355555555556,"Mem_Cost":0,"App_Cost":0},{"EndDate":"2020\/07\/10","GPU_Hours":0,"App":"Abaqus","JobName":"cubevnc","JobId":"3484","Queue":"q_x86_expr","Cluster":"aip","CPU_Hours":6.5380555555556,"User":"simforgetest2","Mem_GB_Hours":3.6690766482883,"runTime":6.5380555555556,"JobDescription":"abaplugin","GPU_Cost":0,"CPU_Cost":6.5380555555556,"Mem_Cost":0,"App_Cost":0},{"EndDate":"2020\/07\/10","GPU_Hours":0,"App":"LSPrePost","JobName":"cubevnc","JobId":"3446","Queue":"q_x86_expr","Cluster":"aip","CPU_Hours":8.3905555555556,"User":"simforgetest2","Mem_GB_Hours":12.058799001906,"runTime":8.3905555555556,"JobDescription":"display02","GPU_Cost":0,"CPU_Cost":8.3905555555556,"Mem_Cost":0,"App_Cost":0},{"EndDate":"2020\/07\/10","GPU_Hours":0,"App":"TankSim","JobName":"cubevnc","JobId":"3466","Queue":"q_x86_expr","Cluster":"aip","CPU_Hours":7.1141666666667,"User":"simforgetest2","Mem_GB_Hours":1.3759978961945,"runTime":7.1141666666667,"JobDescription":"tannew01","GPU_Cost":0,"CPU_Cost":7.1141666666667,"Mem_Cost":0,"App_Cost":21.3425},{"EndDate":"2020\/07\/10","GPU_Hours":0,"App":"TankSim","JobName":"cubevnc","JobId":"3524","Queue":"q_x86_expr","Cluster":"aip","CPU_Hours":2.7302777777778,"User":"simforgetest2","Mem_GB_Hours":0.49138834211561,"runTime":2.7302777777778,"JobDescription":"tantest01","GPU_Cost":0,"CPU_Cost":2.7302777777778,"Mem_Cost":0,"App_Cost":8.1908333333333},{"EndDate":"2020\/07\/10","GPU_Hours":0,"App":"ICEM-CFD","JobName":"cubevnc","JobId":"3463","Queue":"q_x86_expr","Cluster":"aip","CPU_Hours":7.1794444444444,"User":"simforgetest2","Mem_GB_Hours":1.8222759056091,"runTime":7.1794444444444,"JobDescription":"ICEMtest","GPU_Cost":0,"CPU_Cost":7.1794444444444,"Mem_Cost":0,"App_Cost":0},{"EndDate":"2020\/07\/10","GPU_Hours":0,"App":"ParaView","JobName":"cubevnc","JobId":"3474","Queue":"q_x86_expr","Cluster":"aip","CPU_Hours":6.8947222222222,"User":"simforgetest2","Mem_GB_Hours":3.3457855754428,"runTime":6.8947222222222,"JobDescription":"newpv02","GPU_Cost":0,"CPU_Cost":6.8947222222222,"Mem_Cost":0,"App_Cost":0},{"EndDate":"2020\/07\/10","GPU_Hours":0,"App":"ParaView","JobName":"cubevnc","JobId":"3451","Queue":"q_x86_expr","Cluster":"aip","CPU_Hours":8.28,"User":"simforgetest2","Mem_GB_Hours":7.7679011535645,"runTime":8.28,"JobDescription":"pv02","GPU_Cost":0,"CPU_Cost":8.28,"Mem_Cost":0,"App_Cost":0},{"EndDate":"2020\/07\/10","GPU_Hours":0,"App":"ParaView","JobName":"cubevnc","JobId":"3453","Queue":"q_x86_expr","Cluster":"aip","CPU_Hours":8.2361111111111,"User":"simforgetest2","Mem_GB_Hours":2.9264862272474,"runTime":8.2361111111111,"JobDescription":"newpvtest","GPU_Cost":0,"CPU_Cost":8.2361111111111,"Mem_Cost":0,"App_Cost":0}]}