{"GPU_Hours":0,"App_Hours":{"StarCCM":{"Hours":617.80611111111,"UnitPrice":0,"Cost":0},"Fluent":{"Hours":26.349444444444,"UnitPrice":10,"Cost":263.49444444444},"TankSim":{"Hours":42.028333333333,"UnitPrice":3,"Cost":126.085},"PointWise":{"Hours":0.016111111111111,"UnitPrice":0,"Cost":0},"ICEM-CFD":{"Hours":91.306666666667,"UnitPrice":0,"Cost":0},"ParaView":{"Hours":259.0425,"UnitPrice":0,"Cost":0},"Abaqus":{"Hours":385.91138888889,"UnitPrice":0,"Cost":0},"LSPrePost":{"Hours":95.141111111111,"UnitPrice":0,"Cost":0},"Abaqus2017":{"Hours":1.6,"UnitPrice":0,"Cost":0},"LS-DYNA":{"Hours":0.14166666666667,"UnitPrice":0,"Cost":0}},"Month":"2020-07","CPU_Hours":1519.3433333333,"Users":{"simforgetest1":1908.9227777778},"Mem_GB_Hours":534.89515408198,"App_Cost":389.57944444444,"Mem_Cost":0,"GPU_Cost":0,"Total_Cost":1908.9227777778,"CPU_Cost":1519.3433333333,"Details":[{"EndDate":"2020\/07\/01","GPU_Hours":0,"App":"StarCCM","JobName":"cubevnc","JobId":"2758","Queue":"q_x86_expr","Cluster":"aip","CPU_Hours":0.081111111111111,"User":"simforgetest1","Mem_GB_Hours":0.0013850159115262,"runTime":0.020277777777778,"JobDescription":"starccm_test","GPU_Cost":0,"CPU_Cost":0.081111111111111,"Mem_Cost":0,"App_Cost":0},{"EndDate":"2020\/07\/01","GPU_Hours":0,"App":"StarCCM","JobName":"cubevnc","JobId":"2759","Queue":"q_x86_expr","Cluster":"aip","CPU_Hours":0.016111111111111,"User":"simforgetest1","Mem_GB_Hours":0.0010905901590983,"runTime":0.016111111111111,"JobDescription":"starccm_test","GPU_Cost":0,"CPU_Cost":0.016111111111111,"Mem_Cost":0,"App_Cost":0},{"EndDate":"2020\/07\/01","GPU_Hours":0,"App":"StarCCM","JobName":"cubevnc","JobId":"2760","Queue":"q_x86_expr","Cluster":"aip","CPU_Hours":1.5811111111111,"User":"simforgetest1","Mem_GB_Hours":0.028525791168213,"runTime":0.39527777777778,"JobDescription":"starccm_test","GPU_Cost":0,"CPU_Cost":1.5811111111111,"Mem_Cost":0,"App_Cost":0},{"EndDate":"2020\/07\/01","GPU_Hours":0,"App":"Fluent","JobName":"cubevnc","JobId":"2761","Queue":"q_x86_expr","Cluster":"aip","CPU_Hours":1.4844444444444,"User":"simforgetest1","Mem_GB_Hours":0.028174794514974,"runTime":0.37111111111111,"JobDescription":"fluent_test","GPU_Cost":0,"CPU_Cost":1.4844444444444,"Mem_Cost":0,"App_Cost":14.844444444444},{"EndDate":"2020\/07\/01","GPU_Hours":0,"App":"TankSim","JobName":"cubevnc","JobId":"2785","Queue":"q_x86_expr","Cluster":"aip","CPU_Hours":0.0052777777777778,"User":"simforgetest1","Mem_GB_Hours":0.00064637396070692,"runTime":0.0052777777777778,"JobDescription":"testtank01","GPU_Cost":0,"CPU_Cost":0.0052777777777778,"Mem_Cost":0,"App_Cost":0.015833333333333},{"EndDate":"2020\/07\/01","GPU_Hours":0,"App":"TankSim","JobName":"cubevnc","JobId":"2786","Queue":"q_x86_expr","Cluster":"aip","CPU_Hours":0.0052777777777778,"User":"simforgetest1","Mem_GB_Hours":0.00061699973212348,"runTime":0.0052777777777778,"JobDescription":"tanknew02","GPU_Cost":0,"CPU_Cost":0.0052777777777778,"Mem_Cost":0,"App_Cost":0.015833333333333},{"EndDate":"2020\/07\/01","GPU_Hours":0,"App":"PointWise","JobName":"cubevnc","JobId":"2791","Queue":"q_x86_expr","Cluster":"aip","CPU_Hours":0.0011111111111111,"User":"simforgetest1","Mem_GB_Hours":1.4046563042535e-5,"runTime":0.0011111111111111,"JobDescription":"PW_test","GPU_Cost":0,"CPU_Cost":0.0011111111111111,"Mem_Cost":0,"App_Cost":0},{"EndDate":"2020\/07\/01","GPU_Hours":0,"App":"PointWise","JobName":"cubevnc","JobId":"2792","Queue":"q_x86_expr","Cluster":"aip","CPU_Hours":0.0011111111111111,"User":"simforgetest1","Mem_GB_Hours":1.40380859375e-5,"runTime":0.0011111111111111,"JobDescription":"PW_test","GPU_Cost":0,"CPU_Cost":0.0011111111111111,"Mem_Cost":0,"App_Cost":0},{"EndDate":"2020\/07\/01","GPU_Hours":0,"App":"PointWise","JobName":"cubevnc","JobId":"2793","Queue":"q_x86_expr","Cluster":"aip","CPU_Hours":0.0011111111111111,"User":"simforgetest1","Mem_GB_Hours":1.40380859375e-5,"runTime":0.0011111111111111,"JobDescription":"PW_test","GPU_Cost":0,"CPU_Cost":0.0011111111111111,"Mem_Cost":0,"App_Cost":0},{"EndDate":"2020\/07\/01","GPU_Hours":0,"App":"PointWise","JobName":"cubevnc","JobId":"2801","Queue":"q_x86_expr","Cluster":"aip","CPU_Hours":0.0011111111111111,"User":"simforgetest1","Mem_GB_Hours":1.4042324490017e-5,"runTime":0.0011111111111111,"JobDescription":"PW_testp","GPU_Cost":0,"CPU_Cost":0.0011111111111111,"Mem_Cost":0,"App_Cost":0},{"EndDate":"2020\/07\/01","GPU_Hours":0,"App":"PointWise","JobName":"cubevnc","JobId":"2803","Queue":"q_x86_expr","Cluster":"aip","CPU_Hours":0.0011111111111111,"User":"simforgetest1","Mem_GB_Hours":1.40380859375e-5,"runTime":0.0011111111111111,"JobDescription":"PW_test","GPU_Cost":0,"CPU_Cost":0.0011111111111111,"Mem_Cost":0,"App_Cost":0},{"EndDate":"2020\/07\/01","GPU_Hours":0,"App":"PointWise","JobName":"cubevnc","JobId":"2805","Queue":"q_x86_expr","Cluster":"aip","CPU_Hours":0.0011111111111111,"User":"simforgetest1","Mem_GB_Hours":1.4046563042535e-5,"runTime":0.0011111111111111,"JobDescription":"PW_TETS","GPU_Cost":0,"CPU_Cost":0.0011111111111111,"Mem_Cost":0,"App_Cost":0},{"EndDate":"2020\/07\/01","GPU_Hours":0,"App":"PointWise","JobName":"cubevnc","JobId":"2808","Queue":"q_x86_expr","Cluster":"aip","CPU_Hours":0.0013888888888889,"User":"simforgetest1","Mem_GB_Hours":1.7547607421875e-5,"runTime":0.0013888888888889,"JobDescription":"PW_test","GPU_Cost":0,"CPU_Cost":0.0013888888888889,"Mem_Cost":0,"App_Cost":0},{"EndDate":"2020\/07\/01","GPU_Hours":0,"App":"ICEM-CFD","JobName":"cubevnc","JobId":"2794","Queue":"q_x86_expr","Cluster":"aip","CPU_Hours":0.62222222222222,"User":"simforgetest1","Mem_GB_Hours":0.12230868869358,"runTime":0.62222222222222,"JobDescription":"icemcfd","GPU_Cost":0,"CPU_Cost":0.62222222222222,"Mem_Cost":0,"App_Cost":0},{"EndDate":"2020\/07\/01","GPU_Hours":0,"App":"Fluent","JobName":"cubevnc","JobId":"2813","Queue":"q_x86_expr","Cluster":"aip","CPU_Hours":0.038888888888889,"User":"simforgetest1","Mem_GB_Hours":0.00069138209025065,"runTime":0.0097222222222222,"JobDescription":"fluent_test","GPU_Cost":0,"CPU_Cost":0.038888888888889,"Mem_Cost":0,"App_Cost":0.38888888888889},{"EndDate":"2020\/07\/01","GPU_Hours":0,"App":"Fluent","JobName":"cubevnc","JobId":"2828","Queue":"q_x86_expr","Cluster":"aip","CPU_Hours":0.042222222222222,"User":"simforgetest1","Mem_GB_Hours":0.00074794557359484,"runTime":0.010555555555556,"JobDescription":"fluent_test","GPU_Cost":0,"CPU_Cost":0.042222222222222,"Mem_Cost":0,"App_Cost":0.42222222222222},{"EndDate":"2020\/07\/01","GPU_Hours":0,"App":"StarCCM","JobName":"cubevnc","JobId":"2830","Queue":"q_x86_expr","Cluster":"aip","CPU_Hours":0.16416666666667,"User":"simforgetest1","Mem_GB_Hours":0.043041688071357,"runTime":0.054722222222222,"JobDescription":"starccm_test","GPU_Cost":0,"CPU_Cost":0.16416666666667,"Mem_Cost":0,"App_Cost":0},{"EndDate":"2020\/07\/01","GPU_Hours":0,"App":"StarCCM","JobName":"cubevnc","JobId":"2834","Queue":"q_x86_expr","Cluster":"aip","CPU_Hours":0.0725,"User":"simforgetest1","Mem_GB_Hours":0.020114889144897,"runTime":0.024166666666667,"JobDescription":"starccm_test","GPU_Cost":0,"CPU_Cost":0.0725,"Mem_Cost":0,"App_Cost":0},{"EndDate":"2020\/07\/01","GPU_Hours":0,"App":"StarCCM","JobName":"cubevnc","JobId":"2836","Queue":"q_x86_expr","Cluster":"aip","CPU_Hours":0.60916666666667,"User":"simforgetest1","Mem_GB_Hours":0.14979746924506,"runTime":0.20305555555556,"JobDescription":"starccm_test","GPU_Cost":0,"CPU_Cost":0.60916666666667,"Mem_Cost":0,"App_Cost":0},{"EndDate":"2020\/07\/01","GPU_Hours":0,"App":"StarCCM","JobName":"cubevnc","JobId":"2843","Queue":"q_x86_expr","Cluster":"aip","CPU_Hours":0.0925,"User":"simforgetest1","Mem_GB_Hours":0.022895523707072,"runTime":0.030833333333333,"JobDescription":"starccm_test","GPU_Cost":0,"CPU_Cost":0.0925,"Mem_Cost":0,"App_Cost":0},{"EndDate":"2020\/07\/01","GPU_Hours":0,"App":"StarCCM","JobName":"cubevnc","JobId":"2844","Queue":"q_x86_expr","Cluster":"aip","CPU_Hours":3.7933333333333,"User":"simforgetest1","Mem_GB_Hours":0.86407208760579,"runTime":1.2644444444444,"JobDescription":"starccm_test","GPU_Cost":0,"CPU_Cost":3.7933333333333,"Mem_Cost":0,"App_Cost":0},{"EndDate":"2020\/07\/01","GPU_Hours":0,"App":"StarCCM","JobName":"cubevnc","JobId":"2863","Queue":"q_x86_expr","Cluster":"aip","CPU_Hours":0.035833333333333,"User":"simforgetest1","Mem_GB_Hours":0.027540012995402,"runTime":0.035833333333333,"JobDescription":"starccm_test","GPU_Cost":0,"CPU_Cost":0.035833333333333,"Mem_Cost":0,"App_Cost":0},{"EndDate":"2020\/07\/01","GPU_Hours":0,"App":"PointWise","JobName":"cubevnc","JobId":"2865","Queue":"q_x86_expr","Cluster":"aip","CPU_Hours":0.0055555555555556,"User":"simforgetest1","Mem_GB_Hours":0.0016435623168945,"runTime":0.0055555555555556,"JobDescription":"PW_test","GPU_Cost":0,"CPU_Cost":0.0055555555555556,"Mem_Cost":0,"App_Cost":0},{"EndDate":"2020\/07\/01","GPU_Hours":0,"App":"StarCCM","JobName":"cubevnc","JobId":"2866","Queue":"q_x86_expr","Cluster":"aip","CPU_Hours":0.037777777777778,"User":"simforgetest1","Mem_GB_Hours":0.027831971910265,"runTime":0.037777777777778,"JobDescription":"starccm_test","GPU_Cost":0,"CPU_Cost":0.037777777777778,"Mem_Cost":0,"App_Cost":0},{"EndDate":"2020\/07\/02","GPU_Hours":0,"App":"StarCCM","JobName":"cubevnc","JobId":"2920","Queue":"q_x86_expr","Cluster":"aip","CPU_Hours":0.0088888888888889,"User":"simforgetest1","Mem_GB_Hours":1.4042324490017e-5,"runTime":0.0011111111111111,"JobDescription":"starccm_test","GPU_Cost":0,"CPU_Cost":0.0088888888888889,"Mem_Cost":0,"App_Cost":0},{"EndDate":"2020\/07\/02","GPU_Hours":0,"App":"StarCCM","JobName":"cubevnc","JobId":"2921","Queue":"q_x86_expr","Cluster":"aip","CPU_Hours":0.0044444444444444,"User":"simforgetest1","Mem_GB_Hours":1.40380859375e-5,"runTime":0.0011111111111111,"JobDescription":"starccm_test","GPU_Cost":0,"CPU_Cost":0.0044444444444444,"Mem_Cost":0,"App_Cost":0},{"EndDate":"2020\/07\/02","GPU_Hours":0,"App":"StarCCM","JobName":"cubevnc","JobId":"2926","Queue":"q_x86_expr","Cluster":"aip","CPU_Hours":0.0044444444444444,"User":"simforgetest1","Mem_GB_Hours":1.4042324490017e-5,"runTime":0.0011111111111111,"JobDescription":"starccm_test","GPU_Cost":0,"CPU_Cost":0.0044444444444444,"Mem_Cost":0,"App_Cost":0},{"EndDate":"2020\/07\/02","GPU_Hours":0,"App":"StarCCM","JobName":"cubevnc","JobId":"2927","Queue":"q_x86_expr","Cluster":"aip","CPU_Hours":0.0044444444444444,"User":"simforgetest1","Mem_GB_Hours":1.40380859375e-5,"runTime":0.0011111111111111,"JobDescription":"starccm_test","GPU_Cost":0,"CPU_Cost":0.0044444444444444,"Mem_Cost":0,"App_Cost":0},{"EndDate":"2020\/07\/02","GPU_Hours":0,"App":"StarCCM","JobName":"cubevnc","JobId":"2929","Queue":"q_x86_expr","Cluster":"aip","CPU_Hours":1.0022222222222,"User":"simforgetest1","Mem_GB_Hours":0.22099763870239,"runTime":0.25055555555556,"JobDescription":"starccm_test","GPU_Cost":0,"CPU_Cost":1.0022222222222,"Mem_Cost":0,"App_Cost":0},{"EndDate":"2020\/07\/02","GPU_Hours":0,"App":"Fluent","JobName":"cubevnc","JobId":"2930","Queue":"q_x86_expr","Cluster":"aip","CPU_Hours":0.0044444444444444,"User":"simforgetest1","Mem_GB_Hours":0.00034208509657118,"runTime":0.0044444444444444,"JobDescription":"fluent_test","GPU_Cost":0,"CPU_Cost":0.0044444444444444,"Mem_Cost":0,"App_Cost":0.044444444444444},{"EndDate":"2020\/07\/02","GPU_Hours":0,"App":"Fluent","JobName":"cubevnc","JobId":"2936","Queue":"q_x86_expr","Cluster":"aip","CPU_Hours":0.027777777777778,"User":"simforgetest1","Mem_GB_Hours":0.00054817729526096,"runTime":0.0069444444444444,"JobDescription":"fluent_test_2","GPU_Cost":0,"CPU_Cost":0.027777777777778,"Mem_Cost":0,"App_Cost":0.27777777777778},{"EndDate":"2020\/07\/02","GPU_Hours":0,"App":"Fluent","JobName":"cubevnc","JobId":"2956","Queue":"q_sw_expr","Cluster":"aip","CPU_Hours":0.012222222222222,"User":"simforgetest1","Mem_GB_Hours":0.00040854348076714,"runTime":0.0061111111111111,"JobDescription":"fluent_test_3","GPU_Cost":0,"CPU_Cost":0.012222222222222,"Mem_Cost":0,"App_Cost":0.12222222222222},{"EndDate":"2020\/07\/03","GPU_Hours":0,"App":"StarCCM","JobName":"cubevnc","JobId":"2957","Queue":"q_x86_expr","Cluster":"aip","CPU_Hours":335.21666666667,"User":"simforgetest1","Mem_GB_Hours":16.637242136002,"runTime":16.760833333333,"JobDescription":"starccm_test_3","GPU_Cost":0,"CPU_Cost":335.21666666667,"Mem_Cost":0,"App_Cost":0},{"EndDate":"2020\/07\/03","GPU_Hours":0,"App":"ParaView","JobName":"cubevnc","JobId":"2779","Queue":"q_x86_expr","Cluster":"aip","CPU_Hours":52.98,"User":"simforgetest1","Mem_GB_Hours":24.751512908936,"runTime":52.98,"JobDescription":"pv","GPU_Cost":0,"CPU_Cost":52.98,"Mem_Cost":0,"App_Cost":0},{"EndDate":"2020\/07\/03","GPU_Hours":0,"App":"Abaqus","JobName":"cubevnc","JobId":"2709","Queue":"q_x86_expr","Cluster":"aip","CPU_Hours":69.502777777778,"User":"simforgetest1","Mem_GB_Hours":42.134521261851,"runTime":69.502777777778,"JobDescription":"blow","GPU_Cost":0,"CPU_Cost":69.502777777778,"Mem_Cost":0,"App_Cost":0},{"EndDate":"2020\/07\/03","GPU_Hours":0,"App":"Abaqus","JobName":"cubevnc","JobId":"2706","Queue":"q_x86_expr","Cluster":"aip","CPU_Hours":69.617777777778,"User":"simforgetest1","Mem_GB_Hours":40.915953776042,"runTime":69.617777777778,"JobDescription":"newtest01","GPU_Cost":0,"CPU_Cost":69.617777777778,"Mem_Cost":0,"App_Cost":0},{"EndDate":"2020\/07\/03","GPU_Hours":0,"App":"Abaqus","JobName":"cubevnc","JobId":"2672","Queue":"q_x86_expr","Cluster":"aip","CPU_Hours":71.738055555556,"User":"simforgetest1","Mem_GB_Hours":37.289591461817,"runTime":71.738055555556,"JobDescription":"qiuxiao","GPU_Cost":0,"CPU_Cost":71.738055555556,"Mem_Cost":0,"App_Cost":0},{"EndDate":"2020\/07\/03","GPU_Hours":0,"App":"Abaqus","JobName":"cubevnc","JobId":"2666","Queue":"q_x86_expr","Cluster":"aip","CPU_Hours":71.865,"User":"simforgetest1","Mem_GB_Hours":40.392536029816,"runTime":71.865,"JobDescription":"abatest01","GPU_Cost":0,"CPU_Cost":71.865,"Mem_Cost":0,"App_Cost":0},{"EndDate":"2020\/07\/03","GPU_Hours":0,"App":"LSPrePost","JobName":"cubevnc","JobId":"2782","Queue":"q_x86_expr","Cluster":"aip","CPU_Hours":52.858055555556,"User":"simforgetest1","Mem_GB_Hours":14.059979842504,"runTime":52.858055555556,"JobDescription":"display01","GPU_Cost":0,"CPU_Cost":52.858055555556,"Mem_Cost":0,"App_Cost":0},{"EndDate":"2020\/07\/03","GPU_Hours":0,"App":"ParaView","JobName":"cubevnc","JobId":"2884","Queue":"q_x86_expr","Cluster":"aip","CPU_Hours":45.895833333333,"User":"simforgetest1","Mem_GB_Hours":15.168119112651,"runTime":45.895833333333,"JobDescription":"new02","GPU_Cost":0,"CPU_Cost":45.895833333333,"Mem_Cost":0,"App_Cost":0},{"EndDate":"2020\/07\/03","GPU_Hours":0,"App":"Abaqus","JobName":"cubevnc","JobId":"2783","Queue":"q_x86_expr","Cluster":"aip","CPU_Hours":52.833055555556,"User":"simforgetest1","Mem_GB_Hours":26.316562889947,"runTime":52.833055555556,"JobDescription":"seal","GPU_Cost":0,"CPU_Cost":52.833055555556,"Mem_Cost":0,"App_Cost":0},{"EndDate":"2020\/07\/03","GPU_Hours":0,"App":"Abaqus","JobName":"cubevnc","JobId":"2993","Queue":"q_x86_expr","Cluster":"aip","CPU_Hours":7.0497222222222,"User":"simforgetest1","Mem_GB_Hours":3.414117565155,"runTime":7.0497222222222,"JobDescription":"abaqussim03","GPU_Cost":0,"CPU_Cost":7.0497222222222,"Mem_Cost":0,"App_Cost":0},{"EndDate":"2020\/07\/07","GPU_Hours":0,"App":"Fluent","JobName":"cubevnc","JobId":"3294","Queue":"q_x86_expr","Cluster":"aip","CPU_Hours":1.0866666666667,"User":"simforgetest1","Mem_GB_Hours":0.0079855834113227,"runTime":0.090555555555556,"JobDescription":"fluent_test","GPU_Cost":0,"CPU_Cost":1.0866666666667,"Mem_Cost":0,"App_Cost":10.866666666667},{"EndDate":"2020\/07\/07","GPU_Hours":0,"App":"Fluent","JobName":"cubevnc","JobId":"3295","Queue":"q_x86_expr","Cluster":"aip","CPU_Hours":0.00083333333333333,"User":"simforgetest1","Mem_GB_Hours":2.3914972941081e-5,"runTime":0.00083333333333333,"JobDescription":"fluent_test","GPU_Cost":0,"CPU_Cost":0.00083333333333333,"Mem_Cost":0,"App_Cost":0.0083333333333333},{"EndDate":"2020\/07\/07","GPU_Hours":0,"App":"Fluent","JobName":"cubevnc","JobId":"3296","Queue":"q_x86_expr","Cluster":"aip","CPU_Hours":2.2333333333333,"User":"simforgetest1","Mem_GB_Hours":0.016387950049506,"runTime":0.18611111111111,"JobDescription":"fluent_test","GPU_Cost":0,"CPU_Cost":2.2333333333333,"Mem_Cost":0,"App_Cost":22.333333333333},{"EndDate":"2020\/07\/07","GPU_Hours":0,"App":"Fluent","JobName":"cubevnc","JobId":"3297","Queue":"q_x86_expr","Cluster":"aip","CPU_Hours":0.013333333333333,"User":"simforgetest1","Mem_GB_Hours":3.7019517686632e-5,"runTime":0.0011111111111111,"JobDescription":"fluent_test","GPU_Cost":0,"CPU_Cost":0.013333333333333,"Mem_Cost":0,"App_Cost":0.13333333333333},{"EndDate":"2020\/07\/07","GPU_Hours":0,"App":"Fluent","JobName":"cubevnc","JobId":"3298","Queue":"q_x86_expr","Cluster":"aip","CPU_Hours":2.2566666666667,"User":"simforgetest1","Mem_GB_Hours":0.018396364847819,"runTime":0.18805555555556,"JobDescription":"fluent_test","GPU_Cost":0,"CPU_Cost":2.2566666666667,"Mem_Cost":0,"App_Cost":22.566666666667},{"EndDate":"2020\/07\/07","GPU_Hours":0,"App":"Fluent","JobName":"cubevnc","JobId":"3299","Queue":"q_x86_expr","Cluster":"aip","CPU_Hours":12.06,"User":"simforgetest1","Mem_GB_Hours":0.089944095611572,"runTime":1.005,"JobDescription":"fluent_test","GPU_Cost":0,"CPU_Cost":12.06,"Mem_Cost":0,"App_Cost":120.6},{"EndDate":"2020\/07\/09","GPU_Hours":0,"App":"ParaView","JobName":"cubevnc","JobId":"3322","Queue":"q_x86_expr","Cluster":"aip","CPU_Hours":30.969444444444,"User":"simforgetest1","Mem_GB_Hours":11.334733496772,"runTime":30.969444444444,"JobDescription":"pv","GPU_Cost":0,"CPU_Cost":30.969444444444,"Mem_Cost":0,"App_Cost":0},{"EndDate":"2020\/07\/10","GPU_Hours":0,"App":"Fluent","JobName":"cubevnc","JobId":"3477","Queue":"q_x86_expr","Cluster":"aip","CPU_Hours":0.055555555555556,"User":"simforgetest1","Mem_GB_Hours":0.0013136333889431,"runTime":0.013888888888889,"JobDescription":"fluent_test_3","GPU_Cost":0,"CPU_Cost":0.055555555555556,"Mem_Cost":0,"App_Cost":0.55555555555556},{"EndDate":"2020\/07\/10","GPU_Hours":0,"App":"Fluent","JobName":"cubevnc","JobId":"3479","Queue":"q_x86_expr","Cluster":"aip","CPU_Hours":0.032222222222222,"User":"simforgetest1","Mem_GB_Hours":0.00074417644076877,"runTime":0.0080555555555556,"JobDescription":"fluent_test_3","GPU_Cost":0,"CPU_Cost":0.032222222222222,"Mem_Cost":0,"App_Cost":0.32222222222222},{"EndDate":"2020\/07\/10","GPU_Hours":0,"App":"StarCCM","JobName":"cubevnc","JobId":"3490","Queue":"q_x86_expr","Cluster":"aip","CPU_Hours":0.20861111111111,"User":"simforgetest1","Mem_GB_Hours":0.018841878043281,"runTime":0.20861111111111,"JobDescription":"starccm_test","GPU_Cost":0,"CPU_Cost":0.20861111111111,"Mem_Cost":0,"App_Cost":0},{"EndDate":"2020\/07\/10","GPU_Hours":0,"App":"Fluent","JobName":"cubevnc","JobId":"3467","Queue":"q_x86_expr","Cluster":"aip","CPU_Hours":0.99527777777778,"User":"simforgetest1","Mem_GB_Hours":0.088975275887383,"runTime":0.99527777777778,"JobDescription":"fluent_test","GPU_Cost":0,"CPU_Cost":0.99527777777778,"Mem_Cost":0,"App_Cost":9.9527777777778},{"EndDate":"2020\/07\/10","GPU_Hours":0,"App":"StarCCM","JobName":"cubevnc","JobId":"3493","Queue":"q_x86_expr","Cluster":"aip","CPU_Hours":0.13527777777778,"User":"simforgetest1","Mem_GB_Hours":0.012166763941447,"runTime":0.13527777777778,"JobDescription":"starccm_test","GPU_Cost":0,"CPU_Cost":0.13527777777778,"Mem_Cost":0,"App_Cost":0},{"EndDate":"2020\/07\/10","GPU_Hours":0,"App":"StarCCM","JobName":"cubevnc","JobId":"3496","Queue":"q_x86_expr","Cluster":"aip","CPU_Hours":0.0125,"User":"simforgetest1","Mem_GB_Hours":0.0010522365570068,"runTime":0.0125,"JobDescription":"starccm_test","GPU_Cost":0,"CPU_Cost":0.0125,"Mem_Cost":0,"App_Cost":0},{"EndDate":"2020\/07\/10","GPU_Hours":0,"App":"Fluent","JobName":"cubevnc","JobId":"3472","Queue":"q_x86_expr","Cluster":"aip","CPU_Hours":2.0011111111111,"User":"simforgetest1","Mem_GB_Hours":0.083298204210069,"runTime":1.0005555555556,"JobDescription":"fluent_test_2","GPU_Cost":0,"CPU_Cost":2.0011111111111,"Mem_Cost":0,"App_Cost":20.011111111111},{"EndDate":"2020\/07\/10","GPU_Hours":0,"App":"PointWise","JobName":"cubevnc","JobId":"3498","Queue":"q_x86_expr","Cluster":"aip","CPU_Hours":0.0013888888888889,"User":"simforgetest1","Mem_GB_Hours":1.3711717393663e-5,"runTime":0.0013888888888889,"JobDescription":"PW_test","GPU_Cost":0,"CPU_Cost":0.0013888888888889,"Mem_Cost":0,"App_Cost":0},{"EndDate":"2020\/07\/10","GPU_Hours":0,"App":"Fluent","JobName":"cubevnc","JobId":"3483","Queue":"q_x86_expr","Cluster":"aip","CPU_Hours":4.0044444444444,"User":"simforgetest1","Mem_GB_Hours":0.10424167209201,"runTime":1.0011111111111,"JobDescription":"fluent_test_3","GPU_Cost":0,"CPU_Cost":4.0044444444444,"Mem_Cost":0,"App_Cost":40.044444444444},{"EndDate":"2020\/07\/10","GPU_Hours":0,"App":"PointWise","JobName":"cubevnc","JobId":"3506","Queue":"q_x86_expr","Cluster":"aip","CPU_Hours":0.0011111111111111,"User":"simforgetest1","Mem_GB_Hours":1.1096530490451e-5,"runTime":0.0011111111111111,"JobDescription":"PW_test","GPU_Cost":0,"CPU_Cost":0.0011111111111111,"Mem_Cost":0,"App_Cost":0},{"EndDate":"2020\/07\/10","GPU_Hours":0,"App":"Abaqus2017","JobName":"Job-141302","JobId":"3515","Queue":"q_x86_share","Cluster":"aip","CPU_Hours":0.013333333333333,"User":"simforgetest1","Mem_GB_Hours":6.150139702691e-6,"runTime":0.00055555555555556,"JobDescription":"Job-141302-qiuxiao","GPU_Cost":0,"CPU_Cost":0.013333333333333,"Mem_Cost":0,"App_Cost":0},{"EndDate":"2020\/07\/10","GPU_Hours":0,"App":"Abaqus2017","JobName":"Job-142343","JobId":"3516","Queue":"q_x86_share","Cluster":"aip","CPU_Hours":0.0066666666666667,"User":"simforgetest1","Mem_GB_Hours":3.0761294894748e-6,"runTime":0.00027777777777778,"JobDescription":"Job-142343-qiuxiao","GPU_Cost":0,"CPU_Cost":0.0066666666666667,"Mem_Cost":0,"App_Cost":0},{"EndDate":"2020\/07\/10","GPU_Hours":0,"App":"Abaqus2017","JobName":"Job-142500","JobId":"3517","Queue":"q_x86_expr","Cluster":"aip","CPU_Hours":1.2566666666667,"User":"simforgetest1","Mem_GB_Hours":0.001159700817532,"runTime":0.10472222222222,"JobDescription":"Job-142500-qiuxiao","GPU_Cost":0,"CPU_Cost":1.2566666666667,"Mem_Cost":0,"App_Cost":0},{"EndDate":"2020\/07\/10","GPU_Hours":0,"App":"Abaqus2017","JobName":"Job-142926","JobId":"3520","Queue":"q_x86_expr","Cluster":"aip","CPU_Hours":0.18444444444444,"User":"simforgetest1","Mem_GB_Hours":0.00051063749525282,"runTime":0.046111111111111,"JobDescription":"Job-142926-Squeeze","GPU_Cost":0,"CPU_Cost":0.18444444444444,"Mem_Cost":0,"App_Cost":0},{"EndDate":"2020\/07\/10","GPU_Hours":0,"App":"Abaqus2017","JobName":"Job-143412","JobId":"3522","Queue":"q_x86_expr","Cluster":"aip","CPU_Hours":0.13888888888889,"User":"simforgetest1","Mem_GB_Hours":0.00038756264580621,"runTime":0.034722222222222,"JobDescription":"Job-143412-explicit","GPU_Cost":0,"CPU_Cost":0.13888888888889,"Mem_Cost":0,"App_Cost":0},{"EndDate":"2020\/07\/10","GPU_Hours":0,"App":"Abaqus","JobName":"cubevnc","JobId":"3519","Queue":"q_x86_expr","Cluster":"aip","CPU_Hours":0.24277777777778,"User":"simforgetest1","Mem_GB_Hours":0.14204978307088,"runTime":0.24277777777778,"JobDescription":"abaqus_test2","GPU_Cost":0,"CPU_Cost":0.24277777777778,"Mem_Cost":0,"App_Cost":0},{"EndDate":"2020\/07\/10","GPU_Hours":0,"App":"Abaqus","JobName":"cubevnc","JobId":"3521","Queue":"q_x86_expr","Cluster":"aip","CPU_Hours":0.19083333333333,"User":"simforgetest1","Mem_GB_Hours":0.10750026384989,"runTime":0.19083333333333,"JobDescription":"abaqus_test3","GPU_Cost":0,"CPU_Cost":0.19083333333333,"Mem_Cost":0,"App_Cost":0},{"EndDate":"2020\/07\/10","GPU_Hours":0,"App":"LS-DYNA","JobName":"\/home\/export\/base\/nsccwuxi_amd\/simforgetest1\/online1\/lsdyna\/car2car\/Caravan-V03c_ver10-1200k-car1.k","JobId":"3528","Queue":"q_x86_expr","Cluster":"aip","CPU_Hours":0.033333333333333,"User":"simforgetest1","Mem_GB_Hours":0.00018609364827474,"runTime":0.016666666666667,"JobDescription":"Caravan-V03c_ver10-1200k-car1.k","GPU_Cost":0,"CPU_Cost":0.033333333333333,"Mem_Cost":0,"App_Cost":0},{"EndDate":"2020\/07\/10","GPU_Hours":0,"App":"LSPrePost","JobName":"cubevnc","JobId":"3527","Queue":"q_x86_expr","Cluster":"aip","CPU_Hours":0.055277777777778,"User":"simforgetest1","Mem_GB_Hours":0.027803365919325,"runTime":0.055277777777778,"JobDescription":"ls_test","GPU_Cost":0,"CPU_Cost":0.055277777777778,"Mem_Cost":0,"App_Cost":0},{"EndDate":"2020\/07\/10","GPU_Hours":0,"App":"Abaqus","JobName":"cubevnc","JobId":"3513","Queue":"q_x86_expr","Cluster":"aip","CPU_Hours":0.65333333333333,"User":"simforgetest1","Mem_GB_Hours":0.33753545125326,"runTime":0.65333333333333,"JobDescription":"abaqus_test1","GPU_Cost":0,"CPU_Cost":0.65333333333333,"Mem_Cost":0,"App_Cost":0},{"EndDate":"2020\/07\/10","GPU_Hours":0,"App":"LS-DYNA","JobName":"\/home\/export\/online1\/simforgetest1\/lsdyna\/car2car\/Caravan-V03c_ver10-1200k-car1.k","JobId":"3532","Queue":"q_x86_expr","Cluster":"aip","CPU_Hours":0.045,"User":"simforgetest1","Mem_GB_Hours":0.00025114059448242,"runTime":0.0225,"JobDescription":"Caravan-V03c_ver10-1200k-car1.k","GPU_Cost":0,"CPU_Cost":0.045,"Mem_Cost":0,"App_Cost":0},{"EndDate":"2020\/07\/10","GPU_Hours":0,"App":"LS-DYNA","JobName":"\/home\/export\/online1\/simforgetest1\/lsdyna\/car2car\/Caravan-V03c_ver10-1200k-car1.k","JobId":"3535","Queue":"q_x86_expr","Cluster":"aip","CPU_Hours":0.063333333333333,"User":"simforgetest1","Mem_GB_Hours":0.00017672856648763,"runTime":0.015833333333333,"JobDescription":"Caravan-V03c_ver10-1200k-car1.k","GPU_Cost":0,"CPU_Cost":0.063333333333333,"Mem_Cost":0,"App_Cost":0},{"EndDate":"2020\/07\/12","GPU_Hours":0,"App":"Abaqus","JobName":"cubevnc","JobId":"3531","Queue":"q_x86_expr","Cluster":"aip","CPU_Hours":42.218055555556,"User":"simforgetest1","Mem_GB_Hours":22.392589113447,"runTime":42.218055555556,"JobDescription":"abaqus_test2","GPU_Cost":0,"CPU_Cost":42.218055555556,"Mem_Cost":0,"App_Cost":0},{"EndDate":"2020\/07\/12","GPU_Hours":0,"App":"ParaView","JobName":"cubevnc","JobId":"3512","Queue":"q_x86_expr","Cluster":"aip","CPU_Hours":42.891111111111,"User":"simforgetest1","Mem_GB_Hours":15.422501118978,"runTime":42.891111111111,"JobDescription":"pv_test3","GPU_Cost":0,"CPU_Cost":42.891111111111,"Mem_Cost":0,"App_Cost":0},{"EndDate":"2020\/07\/12","GPU_Hours":0,"App":"ParaView","JobName":"cubevnc","JobId":"3511","Queue":"q_x86_expr","Cluster":"aip","CPU_Hours":42.901388888889,"User":"simforgetest1","Mem_GB_Hours":0.41454016897413,"runTime":42.901388888889,"JobDescription":"pv_test2","GPU_Cost":0,"CPU_Cost":42.901388888889,"Mem_Cost":0,"App_Cost":0},{"EndDate":"2020\/07\/12","GPU_Hours":0,"App":"ParaView","JobName":"cubevnc","JobId":"3508","Queue":"q_x86_expr","Cluster":"aip","CPU_Hours":43.404722222222,"User":"simforgetest1","Mem_GB_Hours":15.645926748912,"runTime":43.404722222222,"JobDescription":"pv_test","GPU_Cost":0,"CPU_Cost":43.404722222222,"Mem_Cost":0,"App_Cost":0},{"EndDate":"2020\/07\/12","GPU_Hours":0,"App":"TankSim","JobName":"cubevnc","JobId":"3534","Queue":"q_x86_expr","Cluster":"aip","CPU_Hours":42.017777777778,"User":"simforgetest1","Mem_GB_Hours":7.8576565551758,"runTime":42.017777777778,"JobDescription":"tank_sim_test","GPU_Cost":0,"CPU_Cost":42.017777777778,"Mem_Cost":0,"App_Cost":126.05333333333},{"EndDate":"2020\/07\/12","GPU_Hours":0,"App":"LSPrePost","JobName":"cubevnc","JobId":"3530","Queue":"q_x86_expr","Cluster":"aip","CPU_Hours":42.227777777778,"User":"simforgetest1","Mem_GB_Hours":72.867176246643,"runTime":42.227777777778,"JobDescription":"ls_test","GPU_Cost":0,"CPU_Cost":42.227777777778,"Mem_Cost":0,"App_Cost":0},{"EndDate":"2020\/07\/12","GPU_Hours":0,"App":"ICEM-CFD","JobName":"cubevnc","JobId":"3503","Queue":"q_x86_expr","Cluster":"aip","CPU_Hours":45.245277777778,"User":"simforgetest1","Mem_GB_Hours":19.658629965252,"runTime":45.245277777778,"JobDescription":"icemcfd_test_2","GPU_Cost":0,"CPU_Cost":45.245277777778,"Mem_Cost":0,"App_Cost":0},{"EndDate":"2020\/07\/12","GPU_Hours":0,"App":"ICEM-CFD","JobName":"cubevnc","JobId":"3499","Queue":"q_x86_expr","Cluster":"aip","CPU_Hours":45.439166666667,"User":"simforgetest1","Mem_GB_Hours":13.136145807902,"runTime":45.439166666667,"JobDescription":"icemcfd_test","GPU_Cost":0,"CPU_Cost":45.439166666667,"Mem_Cost":0,"App_Cost":0},{"EndDate":"2020\/07\/12","GPU_Hours":0,"App":"StarCCM","JobName":"cubevnc","JobId":"3497","Queue":"q_x86_expr","Cluster":"aip","CPU_Hours":182.83555555556,"User":"simforgetest1","Mem_GB_Hours":46.387694066366,"runTime":45.708888888889,"JobDescription":"starccm_test_3","GPU_Cost":0,"CPU_Cost":182.83555555556,"Mem_Cost":0,"App_Cost":0},{"EndDate":"2020\/07\/12","GPU_Hours":0,"App":"StarCCM","JobName":"cubevnc","JobId":"3492","Queue":"q_x86_expr","Cluster":"aip","CPU_Hours":91.889444444444,"User":"simforgetest1","Mem_GB_Hours":46.072841087977,"runTime":45.944722222222,"JobDescription":"starccm_test_2","GPU_Cost":0,"CPU_Cost":91.889444444444,"Mem_Cost":0,"App_Cost":0}]}