{"GPU_Hours":0,"App_Hours":{"TankSim":{"Hours":34.566666666667,"UnitPrice":3,"Cost":103.7},"Abaqus":{"Hours":47.468611111111,"UnitPrice":0,"Cost":0},"PointWise":{"Hours":0.13861111111111,"UnitPrice":0,"Cost":0},"ParaView":{"Hours":49.1425,"UnitPrice":0,"Cost":0},"LSPrePost":{"Hours":78.083888888889,"UnitPrice":0,"Cost":0},"ICEM-CFD":{"Hours":41.648333333333,"UnitPrice":0,"Cost":0},"LS-DYNA-R10double":{"Hours":4.6477777777778,"UnitPrice":0,"Cost":0},"Fluent":{"Hours":3.2419444444444,"UnitPrice":10,"Cost":32.419444444444},"Tanksimulator-Calculix":{"Hours":0.0022222222222222,"UnitPrice":0,"Cost":0},"Tanksimulator-Openfoam":{"Hours":0.0047222222222222,"UnitPrice":0,"Cost":0}},"Month":"2020-07","CPU_Hours":258.94527777778,"Users":{"simforgetest3":395.06472222222},"Mem_GB_Hours":123.44032817523,"App_Cost":136.11944444444,"Mem_Cost":0,"GPU_Cost":0,"Total_Cost":395.06472222222,"CPU_Cost":258.94527777778,"Details":[{"EndDate":"2020\/07\/01","GPU_Hours":0,"App":"TankSim","JobName":"cubevnc","JobId":"2787","Queue":"q_x86_share","Cluster":"aip","CPU_Hours":0.0052777777777778,"User":"simforgetest3","Mem_GB_Hours":0.00059656461079915,"runTime":0.0052777777777778,"JobDescription":"tanksim_test2","GPU_Cost":0,"CPU_Cost":0.0052777777777778,"Mem_Cost":0,"App_Cost":0.015833333333333},{"EndDate":"2020\/07\/01","GPU_Hours":0,"App":"TankSim","JobName":"cubevnc","JobId":"2789","Queue":"q_x86_share","Cluster":"aip","CPU_Hours":0.0061111111111111,"User":"simforgetest3","Mem_GB_Hours":0.00073160171508789,"runTime":0.0061111111111111,"JobDescription":"tank03","GPU_Cost":0,"CPU_Cost":0.0061111111111111,"Mem_Cost":0,"App_Cost":0.018333333333333},{"EndDate":"2020\/07\/01","GPU_Hours":0,"App":"TankSim","JobName":"cubevnc","JobId":"2697","Queue":"q_x86_expr","Cluster":"aip","CPU_Hours":17.896111111111,"User":"simforgetest3","Mem_GB_Hours":3.2522992451986,"runTime":17.896111111111,"JobDescription":"instance1","GPU_Cost":0,"CPU_Cost":17.896111111111,"Mem_Cost":0,"App_Cost":53.688333333333},{"EndDate":"2020\/07\/01","GPU_Hours":0,"App":"TankSim","JobName":"cubevnc","JobId":"2790","Queue":"q_x86_expr","Cluster":"aip","CPU_Hours":0.005,"User":"simforgetest3","Mem_GB_Hours":0.00059925079345703,"runTime":0.005,"JobDescription":"tanfix01","GPU_Cost":0,"CPU_Cost":0.005,"Mem_Cost":0,"App_Cost":0.015},{"EndDate":"2020\/07\/01","GPU_Hours":0,"App":"TankSim","JobName":"cubevnc","JobId":"2795","Queue":"q_x86_expr","Cluster":"aip","CPU_Hours":0.0052777777777778,"User":"simforgetest3","Mem_GB_Hours":0.00059906111823188,"runTime":0.0052777777777778,"JobDescription":"tansim02","GPU_Cost":0,"CPU_Cost":0.0052777777777778,"Mem_Cost":0,"App_Cost":0.015833333333333},{"EndDate":"2020\/07\/01","GPU_Hours":0,"App":"TankSim","JobName":"cubevnc","JobId":"2797","Queue":"q_x86_expr","Cluster":"aip","CPU_Hours":0.0052777777777778,"User":"simforgetest3","Mem_GB_Hours":0.00063385115729438,"runTime":0.0052777777777778,"JobDescription":"tanksim01","GPU_Cost":0,"CPU_Cost":0.0052777777777778,"Mem_Cost":0,"App_Cost":0.015833333333333},{"EndDate":"2020\/07\/01","GPU_Hours":0,"App":"TankSim","JobName":"cubevnc","JobId":"2800","Queue":"q_x86_expr","Cluster":"aip","CPU_Hours":0.0052777777777778,"User":"simforgetest3","Mem_GB_Hours":0.0006004704369439,"runTime":0.0052777777777778,"JobDescription":"tanksim01","GPU_Cost":0,"CPU_Cost":0.0052777777777778,"Mem_Cost":0,"App_Cost":0.015833333333333},{"EndDate":"2020\/07\/01","GPU_Hours":0,"App":"TankSim","JobName":"cubevnc","JobId":"2804","Queue":"q_x86_expr","Cluster":"aip","CPU_Hours":0.0052777777777778,"User":"simforgetest3","Mem_GB_Hours":0.00060693316989475,"runTime":0.0052777777777778,"JobDescription":"tanksim01","GPU_Cost":0,"CPU_Cost":0.0052777777777778,"Mem_Cost":0,"App_Cost":0.015833333333333},{"EndDate":"2020\/07\/01","GPU_Hours":0,"App":"TankSim","JobName":"cubevnc","JobId":"2806","Queue":"q_x86_expr","Cluster":"aip","CPU_Hours":0.0052777777777778,"User":"simforgetest3","Mem_GB_Hours":0.00063054932488336,"runTime":0.0052777777777778,"JobDescription":"tanksim02","GPU_Cost":0,"CPU_Cost":0.0052777777777778,"Mem_Cost":0,"App_Cost":0.015833333333333},{"EndDate":"2020\/07\/01","GPU_Hours":0,"App":"TankSim","JobName":"cubevnc","JobId":"2807","Queue":"q_x86_expr","Cluster":"aip","CPU_Hours":0.0052777777777778,"User":"simforgetest3","Mem_GB_Hours":0.0006198787689209,"runTime":0.0052777777777778,"JobDescription":"tanksim01","GPU_Cost":0,"CPU_Cost":0.0052777777777778,"Mem_Cost":0,"App_Cost":0.015833333333333},{"EndDate":"2020\/07\/01","GPU_Hours":0,"App":"TankSim","JobName":"cubevnc","JobId":"2809","Queue":"q_x86_expr","Cluster":"aip","CPU_Hours":0.0052777777777778,"User":"simforgetest3","Mem_GB_Hours":0.00062050289577908,"runTime":0.0052777777777778,"JobDescription":"tanksim02","GPU_Cost":0,"CPU_Cost":0.0052777777777778,"Mem_Cost":0,"App_Cost":0.015833333333333},{"EndDate":"2020\/07\/01","GPU_Hours":0,"App":"TankSim","JobName":"cubevnc","JobId":"2810","Queue":"q_x86_expr","Cluster":"aip","CPU_Hours":0.0052777777777778,"User":"simforgetest3","Mem_GB_Hours":0.00063056945800781,"runTime":0.0052777777777778,"JobDescription":"qiuxiao","GPU_Cost":0,"CPU_Cost":0.0052777777777778,"Mem_Cost":0,"App_Cost":0.015833333333333},{"EndDate":"2020\/07\/01","GPU_Hours":0,"App":"TankSim","JobName":"cubevnc","JobId":"2811","Queue":"q_x86_expr","Cluster":"aip","CPU_Hours":0.0052777777777778,"User":"simforgetest3","Mem_GB_Hours":0.00063129425048828,"runTime":0.0052777777777778,"JobDescription":"tankrc","GPU_Cost":0,"CPU_Cost":0.0052777777777778,"Mem_Cost":0,"App_Cost":0.015833333333333},{"EndDate":"2020\/07\/01","GPU_Hours":0,"App":"TankSim","JobName":"cubevnc","JobId":"2814","Queue":"q_x86_expr","Cluster":"aip","CPU_Hours":0.005,"User":"simforgetest3","Mem_GB_Hours":0.00058797836303711,"runTime":0.005,"JobDescription":"tankrc","GPU_Cost":0,"CPU_Cost":0.005,"Mem_Cost":0,"App_Cost":0.015},{"EndDate":"2020\/07\/01","GPU_Hours":0,"App":"TankSim","JobName":"cubevnc","JobId":"2815","Queue":"q_x86_expr","Cluster":"aip","CPU_Hours":0.0052777777777778,"User":"simforgetest3","Mem_GB_Hours":0.00063165664672852,"runTime":0.0052777777777778,"JobDescription":"tankrc","GPU_Cost":0,"CPU_Cost":0.0052777777777778,"Mem_Cost":0,"App_Cost":0.015833333333333},{"EndDate":"2020\/07\/01","GPU_Hours":0,"App":"TankSim","JobName":"cubevnc","JobId":"2816","Queue":"q_x86_expr","Cluster":"aip","CPU_Hours":0.0052777777777778,"User":"simforgetest3","Mem_GB_Hours":0.00063167677985297,"runTime":0.0052777777777778,"JobDescription":"qiuxiao","GPU_Cost":0,"CPU_Cost":0.0052777777777778,"Mem_Cost":0,"App_Cost":0.015833333333333},{"EndDate":"2020\/07\/01","GPU_Hours":0,"App":"TankSim","JobName":"cubevnc","JobId":"2817","Queue":"q_x86_expr","Cluster":"aip","CPU_Hours":0.0052777777777778,"User":"simforgetest3","Mem_GB_Hours":0.00062318060133192,"runTime":0.0052777777777778,"JobDescription":"tanksim01","GPU_Cost":0,"CPU_Cost":0.0052777777777778,"Mem_Cost":0,"App_Cost":0.015833333333333},{"EndDate":"2020\/07\/01","GPU_Hours":0,"App":"TankSim","JobName":"cubevnc","JobId":"2818","Queue":"q_x86_expr","Cluster":"aip","CPU_Hours":0.0052777777777778,"User":"simforgetest3","Mem_GB_Hours":0.00068184852600098,"runTime":0.0052777777777778,"JobDescription":"tanksim02","GPU_Cost":0,"CPU_Cost":0.0052777777777778,"Mem_Cost":0,"App_Cost":0.015833333333333},{"EndDate":"2020\/07\/01","GPU_Hours":0,"App":"TankSim","JobName":"cubevnc","JobId":"2819","Queue":"q_x86_expr","Cluster":"aip","CPU_Hours":0.0052777777777778,"User":"simforgetest3","Mem_GB_Hours":0.00060975180731879,"runTime":0.0052777777777778,"JobDescription":"tankrc","GPU_Cost":0,"CPU_Cost":0.0052777777777778,"Mem_Cost":0,"App_Cost":0.015833333333333},{"EndDate":"2020\/07\/01","GPU_Hours":0,"App":"TankSim","JobName":"cubevnc","JobId":"2829","Queue":"q_x86_expr","Cluster":"aip","CPU_Hours":0.0052777777777778,"User":"simforgetest3","Mem_GB_Hours":0.00064351505703396,"runTime":0.0052777777777778,"JobDescription":"qiuxiao","GPU_Cost":0,"CPU_Cost":0.0052777777777778,"Mem_Cost":0,"App_Cost":0.015833333333333},{"EndDate":"2020\/07\/01","GPU_Hours":0,"App":"Abaqus","JobName":"cubevnc","JobId":"2688","Queue":"q_x86_expr","Cluster":"aip","CPU_Hours":19.529166666667,"User":"simforgetest3","Mem_GB_Hours":10.156367572149,"runTime":19.529166666667,"JobDescription":"abatest04","GPU_Cost":0,"CPU_Cost":19.529166666667,"Mem_Cost":0,"App_Cost":0},{"EndDate":"2020\/07\/01","GPU_Hours":0,"App":"PointWise","JobName":"cubevnc","JobId":"2873","Queue":"q_x86_expr","Cluster":"aip","CPU_Hours":0.0013888888888889,"User":"simforgetest3","Mem_GB_Hours":1.7558203803168e-5,"runTime":0.0013888888888889,"JobDescription":"PW_test","GPU_Cost":0,"CPU_Cost":0.0013888888888889,"Mem_Cost":0,"App_Cost":0},{"EndDate":"2020\/07\/01","GPU_Hours":0,"App":"PointWise","JobName":"cubevnc","JobId":"2874","Queue":"q_x86_expr","Cluster":"aip","CPU_Hours":0.027222222222222,"User":"simforgetest3","Mem_GB_Hours":0.0044155735439724,"runTime":0.027222222222222,"JobDescription":"PW_test","GPU_Cost":0,"CPU_Cost":0.027222222222222,"Mem_Cost":0,"App_Cost":0},{"EndDate":"2020\/07\/01","GPU_Hours":0,"App":"TankSim","JobName":"cubevnc","JobId":"2875","Queue":"q_x86_expr","Cluster":"aip","CPU_Hours":0.0052777777777778,"User":"simforgetest3","Mem_GB_Hours":0.00063220024108887,"runTime":0.0052777777777778,"JobDescription":"tanksim02","GPU_Cost":0,"CPU_Cost":0.0052777777777778,"Mem_Cost":0,"App_Cost":0.015833333333333},{"EndDate":"2020\/07\/01","GPU_Hours":0,"App":"ParaView","JobName":"cubevnc","JobId":"2687","Queue":"q_x86_expr","Cluster":"aip","CPU_Hours":22.079722222222,"User":"simforgetest3","Mem_GB_Hours":7.6397671678331,"runTime":22.079722222222,"JobDescription":"pv02","GPU_Cost":0,"CPU_Cost":22.079722222222,"Mem_Cost":0,"App_Cost":0},{"EndDate":"2020\/07\/01","GPU_Hours":0,"App":"ParaView","JobName":"cubevnc","JobId":"2876","Queue":"q_x86_expr","Cluster":"aip","CPU_Hours":0.035833333333333,"User":"simforgetest3","Mem_GB_Hours":0.032774136861165,"runTime":0.035833333333333,"JobDescription":"pv01","GPU_Cost":0,"CPU_Cost":0.035833333333333,"Mem_Cost":0,"App_Cost":0},{"EndDate":"2020\/07\/01","GPU_Hours":0,"App":"PointWise","JobName":"cubevnc","JobId":"2880","Queue":"q_x86_expr","Cluster":"aip","CPU_Hours":0.095833333333333,"User":"simforgetest3","Mem_GB_Hours":0.031588252385457,"runTime":0.095833333333333,"JobDescription":"PW_test","GPU_Cost":0,"CPU_Cost":0.095833333333333,"Mem_Cost":0,"App_Cost":0},{"EndDate":"2020\/07\/01","GPU_Hours":0,"App":"PointWise","JobName":"cubevnc","JobId":"2881","Queue":"q_x86_expr","Cluster":"aip","CPU_Hours":0.014166666666667,"User":"simforgetest3","Mem_GB_Hours":0.0043728256225586,"runTime":0.014166666666667,"JobDescription":"PW_test","GPU_Cost":0,"CPU_Cost":0.014166666666667,"Mem_Cost":0,"App_Cost":0},{"EndDate":"2020\/07\/02","GPU_Hours":0,"App":"ParaView","JobName":"cubevnc","JobId":"2877","Queue":"q_x86_expr","Cluster":"aip","CPU_Hours":19.072222222222,"User":"simforgetest3","Mem_GB_Hours":8.1264877531264,"runTime":19.072222222222,"JobDescription":"pv01","GPU_Cost":0,"CPU_Cost":19.072222222222,"Mem_Cost":0,"App_Cost":0},{"EndDate":"2020\/07\/02","GPU_Hours":0,"App":"TankSim","JobName":"cubevnc","JobId":"2919","Queue":"q_x86_expr","Cluster":"aip","CPU_Hours":0.14305555555556,"User":"simforgetest3","Mem_GB_Hours":0.024754661983914,"runTime":0.14305555555556,"JobDescription":"tankrc02","GPU_Cost":0,"CPU_Cost":0.14305555555556,"Mem_Cost":0,"App_Cost":0.42916666666667},{"EndDate":"2020\/07\/02","GPU_Hours":0,"App":"LSPrePost","JobName":"cubevnc","JobId":"2788","Queue":"q_x86_expr","Cluster":"aip","CPU_Hours":22.816111111111,"User":"simforgetest3","Mem_GB_Hours":6.1660178205702,"runTime":22.816111111111,"JobDescription":"zuoye01","GPU_Cost":0,"CPU_Cost":22.816111111111,"Mem_Cost":0,"App_Cost":0},{"EndDate":"2020\/07\/02","GPU_Hours":0,"App":"LSPrePost","JobName":"cubevnc","JobId":"2683","Queue":"q_x86_expr","Cluster":"aip","CPU_Hours":41.263888888889,"User":"simforgetest3","Mem_GB_Hours":53.723460197449,"runTime":41.263888888889,"JobDescription":"lsdyna01","GPU_Cost":0,"CPU_Cost":41.263888888889,"Mem_Cost":0,"App_Cost":0},{"EndDate":"2020\/07\/02","GPU_Hours":0,"App":"ICEM-CFD","JobName":"cubevnc","JobId":"2681","Queue":"q_x86_expr","Cluster":"aip","CPU_Hours":41.639166666667,"User":"simforgetest3","Mem_GB_Hours":9.3277680333455,"runTime":41.639166666667,"JobDescription":"icemcfd","GPU_Cost":0,"CPU_Cost":41.639166666667,"Mem_Cost":0,"App_Cost":0},{"EndDate":"2020\/07\/02","GPU_Hours":0,"App":"Abaqus","JobName":"cubevnc","JobId":"2796","Queue":"q_x86_expr","Cluster":"aip","CPU_Hours":22.503888888889,"User":"simforgetest3","Mem_GB_Hours":11.976394816505,"runTime":22.503888888889,"JobDescription":"www","GPU_Cost":0,"CPU_Cost":22.503888888889,"Mem_Cost":0,"App_Cost":0},{"EndDate":"2020\/07\/02","GPU_Hours":0,"App":"TankSim","JobName":"cubevnc","JobId":"2888","Queue":"q_x86_expr","Cluster":"aip","CPU_Hours":15.729444444444,"User":"simforgetest3","Mem_GB_Hours":1.8203730985853,"runTime":15.729444444444,"JobDescription":"qiuxiao","GPU_Cost":0,"CPU_Cost":15.729444444444,"Mem_Cost":0,"App_Cost":47.188333333333},{"EndDate":"2020\/07\/02","GPU_Hours":0,"App":"TankSim","JobName":"cubevnc","JobId":"2924","Queue":"q_x86_expr","Cluster":"aip","CPU_Hours":0.0275,"User":"simforgetest3","Mem_GB_Hours":0.0043760776519775,"runTime":0.0275,"JobDescription":"tankwithoutg","GPU_Cost":0,"CPU_Cost":0.0275,"Mem_Cost":0,"App_Cost":0.0825},{"EndDate":"2020\/07\/02","GPU_Hours":0,"App":"TankSim","JobName":"cubevnc","JobId":"2925","Queue":"q_x86_expr","Cluster":"aip","CPU_Hours":0.17638888888889,"User":"simforgetest3","Mem_GB_Hours":0.02802840868632,"runTime":0.17638888888889,"JobDescription":"tankwithoutg","GPU_Cost":0,"CPU_Cost":0.17638888888889,"Mem_Cost":0,"App_Cost":0.52916666666667},{"EndDate":"2020\/07\/02","GPU_Hours":0,"App":"TankSim","JobName":"cubevnc","JobId":"2928","Queue":"q_x86_expr","Cluster":"aip","CPU_Hours":0.025833333333333,"User":"simforgetest3","Mem_GB_Hours":0.0044003899892171,"runTime":0.025833333333333,"JobDescription":"tankwithoutg","GPU_Cost":0,"CPU_Cost":0.025833333333333,"Mem_Cost":0,"App_Cost":0.0775},{"EndDate":"2020\/07\/02","GPU_Hours":0,"App":"LSPrePost","JobName":"cubevnc","JobId":"2922","Queue":"q_x86_expr","Cluster":"aip","CPU_Hours":0.60722222222222,"User":"simforgetest3","Mem_GB_Hours":0.32951274871826,"runTime":0.60722222222222,"JobDescription":"lsdyna01","GPU_Cost":0,"CPU_Cost":0.60722222222222,"Mem_Cost":0,"App_Cost":0},{"EndDate":"2020\/07\/02","GPU_Hours":0,"App":"LS-DYNA-R10double","JobName":"\/home\/export\/online1\/simforgetest3\/dynabook\/LS-DYNA\/13.1\/main.k","JobId":"2931","Queue":"q_x86_expr","Cluster":"aip","CPU_Hours":0.031111111111111,"User":"simforgetest3","Mem_GB_Hours":0.00026418050130208,"runTime":0.015555555555556,"JobDescription":"main.k","GPU_Cost":0,"CPU_Cost":0.031111111111111,"Mem_Cost":0,"App_Cost":0},{"EndDate":"2020\/07\/02","GPU_Hours":0,"App":"LS-DYNA-R10double","JobName":"\/home\/export\/online1\/simforgetest3\/dynabook\/LS-DYNA\/11.5\/main.k","JobId":"2933","Queue":"q_x86_expr","Cluster":"aip","CPU_Hours":0.66777777777778,"User":"simforgetest3","Mem_GB_Hours":0.0056691720750597,"runTime":0.33388888888889,"JobDescription":"main.k","GPU_Cost":0,"CPU_Cost":0.66777777777778,"Mem_Cost":0,"App_Cost":0},{"EndDate":"2020\/07\/02","GPU_Hours":0,"App":"LSPrePost","JobName":"cubevnc","JobId":"2937","Queue":"q_x86_expr","Cluster":"aip","CPU_Hours":0.040277777777778,"User":"simforgetest3","Mem_GB_Hours":0.016848373413086,"runTime":0.040277777777778,"JobDescription":"book01","GPU_Cost":0,"CPU_Cost":0.040277777777778,"Mem_Cost":0,"App_Cost":0},{"EndDate":"2020\/07\/02","GPU_Hours":0,"App":"LS-DYNA-R10double","JobName":"\/home\/export\/online1\/simforgetest3\/dynabook\/LS-DYNA\/12.6\/main.k","JobId":"2938","Queue":"q_x86_expr","Cluster":"aip","CPU_Hours":3.9488888888889,"User":"simforgetest3","Mem_GB_Hours":0.016758494906955,"runTime":0.98722222222222,"JobDescription":"main.k","GPU_Cost":0,"CPU_Cost":3.9488888888889,"Mem_Cost":0,"App_Cost":0},{"EndDate":"2020\/07\/02","GPU_Hours":0,"App":"LSPrePost","JobName":"cubevnc","JobId":"2941","Queue":"q_x86_expr","Cluster":"aip","CPU_Hours":4.1730555555556,"User":"simforgetest3","Mem_GB_Hours":1.4017903370327,"runTime":4.1730555555556,"JobDescription":"book01","GPU_Cost":0,"CPU_Cost":4.1730555555556,"Mem_Cost":0,"App_Cost":0},{"EndDate":"2020\/07\/02","GPU_Hours":0,"App":"LSPrePost","JobName":"cubevnc","JobId":"2934","Queue":"q_x86_expr","Cluster":"aip","CPU_Hours":4.5625,"User":"simforgetest3","Mem_GB_Hours":1.6285443305969,"runTime":4.5625,"JobDescription":"test08","GPU_Cost":0,"CPU_Cost":4.5625,"Mem_Cost":0,"App_Cost":0},{"EndDate":"2020\/07\/02","GPU_Hours":0,"App":"LSPrePost","JobName":"cubevnc","JobId":"2932","Queue":"q_x86_expr","Cluster":"aip","CPU_Hours":4.6208333333333,"User":"simforgetest3","Mem_GB_Hours":2.0543304443359,"runTime":4.6208333333333,"JobDescription":"zuoye01","GPU_Cost":0,"CPU_Cost":4.6208333333333,"Mem_Cost":0,"App_Cost":0},{"EndDate":"2020\/07\/03","GPU_Hours":0,"App":"Abaqus","JobName":"cubevnc","JobId":"2990","Queue":"q_x86_expr","Cluster":"aip","CPU_Hours":0.032222222222222,"User":"simforgetest3","Mem_GB_Hours":0.01560604095459,"runTime":0.032222222222222,"JobDescription":"testsim01","GPU_Cost":0,"CPU_Cost":0.032222222222222,"Mem_Cost":0,"App_Cost":0},{"EndDate":"2020\/07\/03","GPU_Hours":0,"App":"Abaqus","JobName":"cubevnc","JobId":"2991","Queue":"q_x86_expr","Cluster":"aip","CPU_Hours":4.7472222222222,"User":"simforgetest3","Mem_GB_Hours":2.3276499218411,"runTime":4.7472222222222,"JobDescription":"newmin01","GPU_Cost":0,"CPU_Cost":4.7472222222222,"Mem_Cost":0,"App_Cost":0},{"EndDate":"2020\/07\/03","GPU_Hours":0,"App":"ParaView","JobName":"cubevnc","JobId":"2994","Queue":"q_x86_expr","Cluster":"aip","CPU_Hours":7.0052777777778,"User":"simforgetest3","Mem_GB_Hours":2.2099932564629,"runTime":7.0052777777778,"JobDescription":"pv02","GPU_Cost":0,"CPU_Cost":7.0052777777778,"Mem_Cost":0,"App_Cost":0},{"EndDate":"2020\/07\/10","GPU_Hours":0,"App":"Fluent","JobName":"cubevnc","JobId":"3470","Queue":"q_x86_share","Cluster":"aip","CPU_Hours":0.034444444444444,"User":"simforgetest3","Mem_GB_Hours":0.00098388671875,"runTime":0.034444444444444,"JobDescription":"flu1","GPU_Cost":0,"CPU_Cost":0.034444444444444,"Mem_Cost":0,"App_Cost":0.34444444444444},{"EndDate":"2020\/07\/10","GPU_Hours":0,"App":"Fluent","JobName":"cubevnc","JobId":"3473","Queue":"q_x86_share","Cluster":"aip","CPU_Hours":0.075555555555556,"User":"simforgetest3","Mem_GB_Hours":0.0010841454399957,"runTime":0.037777777777778,"JobDescription":"FLU1","GPU_Cost":0,"CPU_Cost":0.075555555555556,"Mem_Cost":0,"App_Cost":0.75555555555556},{"EndDate":"2020\/07\/10","GPU_Hours":0,"App":"ICEM-CFD","JobName":"cubevnc","JobId":"3482","Queue":"q_x86_expr","Cluster":"aip","CPU_Hours":0.0091666666666667,"User":"simforgetest3","Mem_GB_Hours":0.0017700131734212,"runTime":0.0091666666666667,"JobDescription":"cfd1","GPU_Cost":0,"CPU_Cost":0.0091666666666667,"Mem_Cost":0,"App_Cost":0},{"EndDate":"2020\/07\/10","GPU_Hours":0,"App":"TankSim","JobName":"cubevnc","JobId":"3491","Queue":"q_x86_expr","Cluster":"aip","CPU_Hours":0.30666666666667,"User":"simforgetest3","Mem_GB_Hours":0.059203287760417,"runTime":0.30666666666667,"JobDescription":"tank1","GPU_Cost":0,"CPU_Cost":0.30666666666667,"Mem_Cost":0,"App_Cost":0.92},{"EndDate":"2020\/07\/10","GPU_Hours":0,"App":"TankSim","JobName":"cubevnc","JobId":"3495","Queue":"q_x86_expr","Cluster":"aip","CPU_Hours":0.15583333333333,"User":"simforgetest3","Mem_GB_Hours":0.026771965026855,"runTime":0.15583333333333,"JobDescription":"tank2","GPU_Cost":0,"CPU_Cost":0.15583333333333,"Mem_Cost":0,"App_Cost":0.4675},{"EndDate":"2020\/07\/10","GPU_Hours":0,"App":"Abaqus","JobName":"cubevnc","JobId":"3485","Queue":"q_x86_expr","Cluster":"aip","CPU_Hours":0.65611111111111,"User":"simforgetest3","Mem_GB_Hours":0.48437200546265,"runTime":0.65611111111111,"JobDescription":"aba1","GPU_Cost":0,"CPU_Cost":0.65611111111111,"Mem_Cost":0,"App_Cost":0},{"EndDate":"2020\/07\/10","GPU_Hours":0,"App":"Fluent","JobName":"cubevnc","JobId":"3476","Queue":"q_x86_expr","Cluster":"aip","CPU_Hours":1.9983333333333,"User":"simforgetest3","Mem_GB_Hours":0.090142409006755,"runTime":0.99916666666667,"JobDescription":"FLU4","GPU_Cost":0,"CPU_Cost":1.9983333333333,"Mem_Cost":0,"App_Cost":19.983333333333},{"EndDate":"2020\/07\/10","GPU_Hours":0,"App":"ParaView","JobName":"cubevnc","JobId":"3478","Queue":"q_x86_share","Cluster":"aip","CPU_Hours":0.94944444444444,"User":"simforgetest3","Mem_GB_Hours":0.33770789676242,"runTime":0.94944444444444,"JobDescription":"test2","GPU_Cost":0,"CPU_Cost":0.94944444444444,"Mem_Cost":0,"App_Cost":0},{"EndDate":"2020\/07\/10","GPU_Hours":0,"App":"Fluent","JobName":"cubevnc","JobId":"3523","Queue":"q_x86_share","Cluster":"aip","CPU_Hours":0.016666666666667,"User":"simforgetest3","Mem_GB_Hours":0.00047613779703776,"runTime":0.016666666666667,"JobDescription":"flu\u2014\u2014share","GPU_Cost":0,"CPU_Cost":0.016666666666667,"Mem_Cost":0,"App_Cost":0.16666666666667},{"EndDate":"2020\/07\/10","GPU_Hours":0,"App":"Fluent","JobName":"cubevnc","JobId":"3525","Queue":"q_x86_share","Cluster":"aip","CPU_Hours":0.038333333333333,"User":"simforgetest3","Mem_GB_Hours":0.0010946782430013,"runTime":0.038333333333333,"JobDescription":"flu_share1","GPU_Cost":0,"CPU_Cost":0.038333333333333,"Mem_Cost":0,"App_Cost":0.38333333333333},{"EndDate":"2020\/07\/10","GPU_Hours":0,"App":"Fluent","JobName":"cubevnc","JobId":"3526","Queue":"q_x86_share","Cluster":"aip","CPU_Hours":0.04,"User":"simforgetest3","Mem_GB_Hours":0.001142578125,"runTime":0.04,"JobDescription":"fluentshare1","GPU_Cost":0,"CPU_Cost":0.04,"Mem_Cost":0,"App_Cost":0.4},{"EndDate":"2020\/07\/10","GPU_Hours":0,"App":"Fluent","JobName":"cubevnc","JobId":"3529","Queue":"q_sw_expr","Cluster":"aip","CPU_Hours":0.035277777777778,"User":"simforgetest3","Mem_GB_Hours":0.0029909080929226,"runTime":0.035277777777778,"JobDescription":"fluswerpr","GPU_Cost":0,"CPU_Cost":0.035277777777778,"Mem_Cost":0,"App_Cost":0.35277777777778},{"EndDate":"2020\/07\/10","GPU_Hours":0,"App":"Tanksimulator-Calculix","JobName":"","JobId":"3537","Queue":"q_x86_expr","Cluster":"aip","CPU_Hours":0.0013888888888889,"User":"simforgetest3","Mem_GB_Hours":3.3627616034614e-5,"runTime":0.0013888888888889,"JobDescription":"testmonpoint","GPU_Cost":0,"CPU_Cost":0.0013888888888889,"Mem_Cost":0,"App_Cost":0},{"EndDate":"2020\/07\/10","GPU_Hours":0,"App":"Tanksimulator-Openfoam","JobName":"","JobId":"3538","Queue":"q_x86_expr","Cluster":"aip","CPU_Hours":0.0027777777777778,"User":"simforgetest3","Mem_GB_Hours":3.3028920491536e-5,"runTime":0.0027777777777778,"JobDescription":"testmonpoint","GPU_Cost":0,"CPU_Cost":0.0027777777777778,"Mem_Cost":0,"App_Cost":0},{"EndDate":"2020\/07\/10","GPU_Hours":0,"App":"Fluent","JobName":"cubevnc","JobId":"3514","Queue":"q_x86_expr","Cluster":"aip","CPU_Hours":1.0033333333333,"User":"simforgetest3","Mem_GB_Hours":0.089320335388184,"runTime":1.0033333333333,"JobDescription":"flu4","GPU_Cost":0,"CPU_Cost":1.0033333333333,"Mem_Cost":0,"App_Cost":10.033333333333},{"EndDate":"2020\/07\/10","GPU_Hours":0,"App":"Tanksimulator-Calculix","JobName":"","JobId":"3540","Queue":"q_x86_expr","Cluster":"aip","CPU_Hours":0.00083333333333333,"User":"simforgetest3","Mem_GB_Hours":6.8314870198568e-6,"runTime":0.00083333333333333,"JobDescription":"testmonpoint","GPU_Cost":0,"CPU_Cost":0.00083333333333333,"Mem_Cost":0,"App_Cost":0},{"EndDate":"2020\/07\/10","GPU_Hours":0,"App":"Tanksimulator-Openfoam","JobName":"","JobId":"3539","Queue":"q_x86_expr","Cluster":"aip","CPU_Hours":0.0019444444444444,"User":"simforgetest3","Mem_GB_Hours":2.1213955349392e-5,"runTime":0.0019444444444444,"JobDescription":"testmonpoint","GPU_Cost":0,"CPU_Cost":0.0019444444444444,"Mem_Cost":0,"App_Cost":0}]}