{
 "User": "zhufq",
 "Queues": "all",
 "Clusters": [
  "aip"
 ],
 "Month": "2020-12",
 "CPU_Hours": 6993.265881638703,
 "Mem_GB_Hours": 109.86721473890991,
 "GPU_Hours": 0,
 "App_Cost": 0,
 "CPU_Cost": 1398.6531763277408,
 "Mem_Cost": 0,
 "GPU_Cost": 0,
 "Total_Cost": 2558.6476726815936,
 "App_Hours": {
  "Abaqus": {
   "Hours": 3763.0931167437666,
   "Cost": 0
  },
  "LS-DYNA": {
   "Hours": 12.440372993786667,
   "Cost": 0
  },
  "SC_Batch1404": {
   "Hours": 1812.4106768435568,
   "Cost": 0
  },
  "StarCCM": {
   "Hours": 2.8625,
   "Cost": 0
  },
  "StarCCM1404": {
   "Hours": 1402.4592150575982,
   "Cost": 0
  }
 },
 "Details": [
  {
   "CPU_Hours": 17.080650280106667,
   "Mem_GB_Hours": 0.005566075864646945,
   "GPU_Hours": 0,
   "Runtime": 0.7116937616711111,
   "App_Hours": 17.080650280106667,
   "JobId": "23103",
   "Queue": "q_x86_cn_sim",
   "User": "zhufq",
   "App": "Abaqus",
   "JobDescription": "Batch-Abaqus",
   "JobName": "/home/export/online3/amd_share/shangruan/bin/abaqus614 /home/export/base/nsccwuxi_amd/zhufq/WORK/EP04/ABAQUS/1226/EP40_M0_TB_Strength_LC10_1222.inp",
   "Cluster": "aip",
   "CPU_Cost": 3.4161300560213337,
   "Mem_Cost": 0,
   "GPU_Cost": 0,
   "App_Cost": 0,
   "StartDate": "2020/12/26",
   "Project": "default"
  },
  {
   "CPU_Hours": 0.006666666666666666,
   "Mem_GB_Hours": 0.0000036843617757161458,
   "GPU_Hours": 0,
   "Runtime": 0.0002777777777777778,
   "App_Hours": 0.006666666666666666,
   "JobId": "23265",
   "Queue": "q_x86_vio_share",
   "User": "zhufq",
   "App": "Abaqus",
   "JobDescription": "TB-STR6",
   "JobName": "/home/export/online3/amd_share/shangruan/bin/abaqus614 /home/export/base/nsccwuxi_amd/zhufq/WORK/EP04/ABAQUS/1226/EP40_M0_TB_Strength_LC11_1222.inp",
   "Cluster": "aip",
   "CPU_Cost": 0.0013333333333333333,
   "Mem_Cost": 0,
   "GPU_Cost": 0,
   "App_Cost": 0,
   "StartDate": "2020/12/26",
   "Project": "default"
  },
  {
   "CPU_Hours": 32.19450625204,
   "Mem_GB_Hours": 0.010393376098668581,
   "GPU_Hours": 0,
   "Runtime": 1.3414377605016667,
   "App_Hours": 32.19450625204,
   "JobId": "21044",
   "Queue": "q_x86_vio_share",
   "User": "zhufq",
   "App": "Abaqus",
   "JobDescription": "tb-2",
   "JobName": "/home/export/online3/amd_share/shangruan/bin/abaqus614 /home/export/base/nsccwuxi_amd/zhufq/WORK/EP04/ABAQUS/1215_TB_STR/EP40_M1_TB_Strength_LC02_V001.inp",
   "Cluster": "aip",
   "CPU_Cost": 6.438901250408,
   "Mem_Cost": 0,
   "GPU_Cost": 0,
   "App_Cost": 0,
   "StartDate": "2020/12/15",
   "Project": "default"
  },
  {
   "CPU_Hours": 0,
   "Mem_GB_Hours": 0,
   "GPU_Hours": 0,
   "Runtime": 0,
   "App_Hours": 0,
   "JobId": "23259",
   "Queue": "q_x86_vio_share",
   "User": "zhufq",
   "App": "Abaqus",
   "JobDescription": "TB-STR6",
   "JobName": "/home/export/online3/amd_share/shangruan/bin/abaqus614 /home/export/base/nsccwuxi_amd/zhufq/WORK/EP04/ABAQUS/1226/EP40_M0_TB_Strength_LC05_1222.inp",
   "Cluster": "aip",
   "CPU_Cost": 0,
   "Mem_Cost": 0,
   "GPU_Cost": 0,
   "App_Cost": 0,
   "StartDate": "2020/12/26",
   "Project": "default"
  },
  {
   "CPU_Hours": 4.84021482796,
   "Mem_GB_Hours": 0.0014100443960595066,
   "GPU_Hours": 0,
   "Runtime": 0.20167561783166665,
   "App_Hours": 4.84021482796,
   "JobId": "22933",
   "Queue": "q_x86_vio_share",
   "User": "zhufq",
   "App": "Abaqus",
   "JobDescription": "STR-3",
   "JobName": "/home/export/online3/amd_share/shangruan/bin/abaqus614 /home/export/base/nsccwuxi_amd/zhufq/WORK/EP04/ABAQUS/1223/EP40_M0_TB_Strength_LC03_1222.inp",
   "Cluster": "aip",
   "CPU_Cost": 0.9680429655920001,
   "Mem_Cost": 0,
   "GPU_Cost": 0,
   "App_Cost": 0,
   "StartDate": "2020/12/25",
   "Project": "default"
  },
  {
   "CPU_Hours": 4.3533333333333335,
   "Mem_GB_Hours": 0.0024072721269395615,
   "GPU_Hours": 0,
   "Runtime": 0.18138888888888888,
   "App_Hours": 4.3533333333333335,
   "JobId": "23237",
   "Queue": "q_x86_vio_share",
   "User": "zhufq",
   "App": "Abaqus",
   "JobDescription": "TB-STR5",
   "JobName": "/home/export/online3/amd_share/shangruan/bin/abaqus614 /home/export/base/nsccwuxi_amd/zhufq/WORK/EP04/ABAQUS/1226/EP40_M0_TB_Strength_LC03_1222.inp",
   "Cluster": "aip",
   "CPU_Cost": 0.8706666666666667,
   "Mem_Cost": 0,
   "GPU_Cost": 0,
   "App_Cost": 0,
   "StartDate": "2020/12/26",
   "Project": "default"
  },
  {
   "CPU_Hours": 36.37468283464889,
   "Mem_GB_Hours": 0.00937855172536992,
   "GPU_Hours": 0,
   "Runtime": 1.1367088385827777,
   "App_Hours": 36.37468283464889,
   "JobId": "24069",
   "Queue": "q_x86_vio_share",
   "User": "zhufq",
   "App": "Abaqus",
   "JobDescription": "tb1230",
   "JobName": "/home/export/online3/amd_share/shangruan/bin/abaqus614 /home/export/base/nsccwuxi_amd/zhufq/WORK/EP04/ABAQUS/1229/1228_3/EP40_M0_TB_Strength_LC01_1228.inp",
   "Cluster": "aip",
   "CPU_Cost": 7.274936566929778,
   "Mem_Cost": 0,
   "GPU_Cost": 0,
   "App_Cost": 0,
   "StartDate": "2020/12/30",
   "Project": "default"
  },
  {
   "CPU_Hours": 36.41465831143333,
   "Mem_GB_Hours": 0.0110716011328045,
   "GPU_Hours": 0,
   "Runtime": 1.5172774296430553,
   "App_Hours": 36.41465831143333,
   "JobId": "23158",
   "Queue": "q_x86_vio_share",
   "User": "zhufq",
   "App": "Abaqus",
   "JobDescription": "zz",
   "JobName": "/home/export/online3/amd_share/shangruan/bin/abaqus614 /home/export/base/nsccwuxi_amd/zhufq/WORK/EP04/ABAQUS/zhongzhuan/front.inp",
   "Cluster": "aip",
   "CPU_Cost": 7.282931662286666,
   "Mem_Cost": 0,
   "GPU_Cost": 0,
   "App_Cost": 0,
   "StartDate": "2020/12/26",
   "Project": "default"
  },
  {
   "CPU_Hours": 26.32115312194667,
   "Mem_GB_Hours": 0.006603655708080684,
   "GPU_Hours": 0,
   "Runtime": 0.8225360350608334,
   "App_Hours": 26.32115312194667,
   "JobId": "22742",
   "Queue": "q_x86_vio_share",
   "User": "zhufq",
   "App": "Abaqus",
   "JobDescription": "TB-STR2",
   "JobName": "/home/export/online3/amd_share/shangruan/bin/abaqus614 /home/export/base/nsccwuxi_amd/zhufq/WORK/EP04/ABAQUS/1223/EP40_M0_TB_Strength_LC01_1222.inp",
   "Cluster": "aip",
   "CPU_Cost": 5.2642306243893335,
   "Mem_Cost": 0,
   "GPU_Cost": 0,
   "App_Cost": 0,
   "StartDate": "2020/12/24",
   "Project": "default"
  },
  {
   "CPU_Hours": 0.008888888888888889,
   "Mem_GB_Hours": 0.0000036843617757161458,
   "GPU_Hours": 0,
   "Runtime": 0.0002777777777777778,
   "App_Hours": 0.008888888888888889,
   "JobId": "24074",
   "Queue": "q_x86_vio_share",
   "User": "zhufq",
   "App": "Abaqus",
   "JobDescription": "tb1230",
   "JobName": "/home/export/online3/amd_share/shangruan/bin/abaqus614 /home/export/base/nsccwuxi_amd/zhufq/WORK/EP04/ABAQUS/1229/1228_3/EP40_M0_TB_Strength_LC06_1228.inp",
   "Cluster": "aip",
   "CPU_Cost": 0.0017777777777777779,
   "Mem_Cost": 0,
   "GPU_Cost": 0,
   "App_Cost": 0,
   "StartDate": "2020/12/30",
   "Project": "default"
  },
  {
   "CPU_Hours": 279.7540142236444,
   "Mem_GB_Hours": 0.05913324544258387,
   "GPU_Hours": 0,
   "Runtime": 8.742312944488887,
   "App_Hours": 279.7540142236444,
   "JobId": "20934",
   "Queue": "q_x86_vio_share",
   "User": "zhufq",
   "App": "SC_Batch1404",
   "JobDescription": "SC_Batch1404",
   "JobName": "/home/export/online3/amd_share/shangruan/bin/starccmyaml1404 /home/export/base/nsccwuxi_amd/zhufq/WORK/EP40-temperture/1214/EP40_PHEV_v12_IDLE_3000rpm_temp_1214_WheelcoverCut_GrilleUp_NewBoard@meshed.sim",
   "Cluster": "aip",
   "CPU_Cost": 55.950802844728884,
   "Mem_Cost": 0,
   "GPU_Cost": 0,
   "App_Cost": 0,
   "StartDate": "2020/12/14",
   "Project": "default"
  },
  {
   "CPU_Hours": 0.006666666666666666,
   "Mem_GB_Hours": 0.0000036854214138454862,
   "GPU_Hours": 0,
   "Runtime": 0.0002777777777777778,
   "App_Hours": 0.006666666666666666,
   "JobId": "22674",
   "Queue": "q_x86_vio_share",
   "User": "zhufq",
   "App": "Abaqus",
   "JobDescription": "TB-STR2",
   "JobName": "/home/export/online3/amd_share/shangruan/bin/abaqus614 /home/export/base/nsccwuxi_amd/zhufq/WORK/EP04/ABAQUS/1223/EP40_M0_TB_Strength_LC10_1222.inp",
   "Cluster": "aip",
   "CPU_Cost": 0.0013333333333333333,
   "Mem_Cost": 0,
   "GPU_Cost": 0,
   "App_Cost": 0,
   "StartDate": "2020/12/23",
   "Project": "default"
  },
  {
   "CPU_Hours": 21.707610376086667,
   "Mem_GB_Hours": 0.007139902015982073,
   "GPU_Hours": 0,
   "Runtime": 0.9044837656702778,
   "App_Hours": 21.707610376086667,
   "JobId": "23317",
   "Queue": "q_x86_vio_share",
   "User": "zhufq",
   "App": "Abaqus",
   "JobDescription": "TB-STR7",
   "JobName": "/home/export/online3/amd_share/shangruan/bin/abaqus614 /home/export/base/nsccwuxi_amd/zhufq/WORK/EP04/ABAQUS/1226/EP40_M0_TB_Strength_LC02_1222.inp",
   "Cluster": "aip",
   "CPU_Cost": 4.341522075217333,
   "Mem_Cost": 0,
   "GPU_Cost": 0,
   "App_Cost": 0,
   "StartDate": "2020/12/27",
   "Project": "default"
  },
  {
   "CPU_Hours": 0.008888888888888889,
   "Mem_GB_Hours": 0.0000036854214138454862,
   "GPU_Hours": 0,
   "Runtime": 0.0002777777777777778,
   "App_Hours": 0.008888888888888889,
   "JobId": "23611",
   "Queue": "q_x86_vio_share",
   "User": "zhufq",
   "App": "Abaqus",
   "JobDescription": "1229_abaqus",
   "JobName": "/home/export/online3/amd_share/shangruan/bin/abaqus614 /home/export/base/nsccwuxi_amd/zhufq/WORK/EP04/ABAQUS/1229/EP40_M0_TB_Strength_LC06_1228.inp",
   "Cluster": "aip",
   "CPU_Cost": 0.0017777777777777779,
   "Mem_Cost": 0,
   "GPU_Cost": 0,
   "App_Cost": 0,
   "StartDate": "2020/12/28",
   "Project": "default"
  },
  {
   "CPU_Hours": 8.521039591854166,
   "Mem_GB_Hours": 0.32691063505699586,
   "GPU_Hours": 0,
   "Runtime": 0.34084158367416667,
   "App_Hours": 8.521039591854166,
   "JobId": "22663",
   "Queue": "q_x86_cn_sim_plus",
   "User": "zhufq",
   "App": "StarCCM1404",
   "JobDescription": "StarCCM1404",
   "JobName": "cubevnc",
   "Cluster": "aip",
   "CPU_Cost": 1.7042079183708334,
   "Mem_Cost": 0,
   "GPU_Cost": 0,
   "App_Cost": 0,
   "StartDate": "2020/12/23",
   "Project": "default"
  },
  {
   "CPU_Hours": 1.2066666666666666,
   "Mem_GB_Hours": 0.000667061275906033,
   "GPU_Hours": 0,
   "Runtime": 0.050277777777777775,
   "App_Hours": 1.2066666666666666,
   "JobId": "22935",
   "Queue": "q_x86_vio_share",
   "User": "zhufq",
   "App": "Abaqus",
   "JobDescription": "STR-3",
   "JobName": "/home/export/online3/amd_share/shangruan/bin/abaqus614 /home/export/base/nsccwuxi_amd/zhufq/WORK/EP04/ABAQUS/1223/EP40_M0_TB_Strength_LC05_1222.inp",
   "Cluster": "aip",
   "CPU_Cost": 0.24133333333333332,
   "Mem_Cost": 0,
   "GPU_Cost": 0,
   "App_Cost": 0,
   "StartDate": "2020/12/25",
   "Project": "default"
  },
  {
   "CPU_Hours": 313.0515638446311,
   "Mem_GB_Hours": 0.06632546959844922,
   "GPU_Hours": 0,
   "Runtime": 9.782861370144722,
   "App_Hours": 313.0515638446311,
   "JobId": "22684",
   "Queue": "q_x86_cn_sim",
   "User": "zhufq",
   "App": "SC_Batch1404",
   "JobDescription": "SC_Batch1404",
   "JobName": "/home/export/online3/amd_share/shangruan/bin/starccmyaml1404 /home/export/base/nsccwuxi_amd/zhufq/WORK/EP40-temperture/1223/EP40_PHEV_v12_90-3400_2700rpm_temp_NewCAS_Solid_1223.sim",
   "Cluster": "aip",
   "CPU_Cost": 62.61031276892623,
   "Mem_Cost": 0,
   "GPU_Cost": 0,
   "App_Cost": 0,
   "StartDate": "2020/12/23",
   "Project": "default"
  },
  {
   "CPU_Hours": 43.58419367730667,
   "Mem_GB_Hours": 0.009443434504008398,
   "GPU_Hours": 0,
   "Runtime": 1.3620060524158335,
   "App_Hours": 43.58419367730667,
   "JobId": "20924",
   "Queue": "q_x86_vio_share",
   "User": "zhufq",
   "App": "SC_Batch1404",
   "JobDescription": "SC_Batch1404",
   "JobName": "/home/export/online3/amd_share/shangruan/bin/starccmyaml1404 /home/export/base/nsccwuxi_amd/zhufq/WORK/EP40-temperture/1214/EP40_PHEV_v12_IDLE_3000rpm_temp_1214_WheelcoverCut_GrilleUp_NewBoard@meshed.sim",
   "Cluster": "aip",
   "CPU_Cost": 8.716838735461334,
   "Mem_Cost": 0,
   "GPU_Cost": 0,
   "App_Cost": 0,
   "StartDate": "2020/12/14",
   "Project": "default"
  },
  {
   "CPU_Hours": 34.80779555243334,
   "Mem_GB_Hours": 0.010972028180379814,
   "GPU_Hours": 0,
   "Runtime": 1.450324814684722,
   "App_Hours": 34.80779555243334,
   "JobId": "23195",
   "Queue": "q_x86_vio_share",
   "User": "zhufq",
   "App": "Abaqus",
   "JobDescription": "zz",
   "JobName": "/home/export/online3/amd_share/shangruan/bin/abaqus614 /home/export/base/nsccwuxi_amd/zhufq/WORK/EP04/ABAQUS/zhongzhuan/rear.inp",
   "Cluster": "aip",
   "CPU_Cost": 6.961559110486666,
   "Mem_Cost": 0,
   "GPU_Cost": 0,
   "App_Cost": 0,
   "StartDate": "2020/12/26",
   "Project": "default"
  },
  {
   "CPU_Hours": 9.960251142339999,
   "Mem_GB_Hours": 0.003948191272116317,
   "GPU_Hours": 0,
   "Runtime": 0.41501046426416666,
   "App_Hours": 9.960251142339999,
   "JobId": "21070",
   "Queue": "q_x86_cn_sim",
   "User": "zhufq",
   "App": "Abaqus",
   "JobDescription": "gr",
   "JobName": "/home/export/online3/amd_share/shangruan/bin/abaqus614 /home/export/base/nsccwuxi_amd/zhufq/WORK/EP04/ABAQUS/GR/EP40_M1_Floor_Treading_Stiffness_LC02_V001.inp",
   "Cluster": "aip",
   "CPU_Cost": 1.992050228468,
   "Mem_Cost": 0,
   "GPU_Cost": 0,
   "App_Cost": 0,
   "StartDate": "2020/12/15",
   "Project": "default"
  },
  {
   "CPU_Hours": 3.9202675898333332,
   "Mem_GB_Hours": 0.0018773984840686853,
   "GPU_Hours": 0,
   "Runtime": 0.16334448290972223,
   "App_Hours": 3.9202675898333332,
   "JobId": "22651",
   "Queue": "q_x86_vio_share",
   "User": "zhufq",
   "App": "Abaqus",
   "JobDescription": "TB-STR2",
   "JobName": "/home/export/online3/amd_share/shangruan/bin/abaqus614 /home/export/base/nsccwuxi_amd/zhufq/WORK/EP04/ABAQUS/1223/EP40_M0_TB_Strength_LC01_1222.inp",
   "Cluster": "aip",
   "CPU_Cost": 0.7840535179666668,
   "Mem_Cost": 0,
   "GPU_Cost": 0,
   "App_Cost": 0,
   "StartDate": "2020/12/23",
   "Project": "default"
  },
  {
   "CPU_Hours": 0.29333333333333333,
   "Mem_GB_Hours": 0.00015591091579861112,
   "GPU_Hours": 0,
   "Runtime": 0.012222222222222223,
   "App_Hours": 0.29333333333333333,
   "JobId": "19032",
   "Queue": "q_x86_vio_share",
   "User": "zhufq",
   "App": "StarCCM",
   "JobDescription": "Batch-StarCCM",
   "JobName": "/home/export/online3/amd_share/shangruan/bin/starccmyaml /home/export/base/nsccwuxi_amd/zhufq/WORK/EP40-temperture/20201131/EP40_PHEV_v12_coolingseal_0kph_2700rpm_temp_Cut_1130@meshed.sim",
   "Cluster": "aip",
   "CPU_Cost": 0.05866666666666667,
   "Mem_Cost": 0,
   "GPU_Cost": 0,
   "App_Cost": 0,
   "StartDate": "2020/12/01",
   "Project": "default"
  },
  {
   "CPU_Hours": 2.0625,
   "Mem_GB_Hours": 0.05880277633666992,
   "GPU_Hours": 0,
   "Runtime": 0.0825,
   "App_Hours": 2.0625,
   "JobId": "19067",
   "Queue": "q_x86_cn_sim_plus",
   "User": "zhufq",
   "App": "StarCCM",
   "JobDescription": "StarCCM",
   "JobName": "cubevnc",
   "Cluster": "aip",
   "CPU_Cost": 0.41250000000000003,
   "Mem_Cost": 0,
   "GPU_Cost": 0,
   "App_Cost": 0,
   "StartDate": "2020/12/01",
   "Project": "default"
  },
  {
   "CPU_Hours": 32.771527079222224,
   "Mem_GB_Hours": 1.487998400624525,
   "GPU_Hours": 0,
   "Runtime": 1.310861083168889,
   "App_Hours": 32.771527079222224,
   "JobId": "19491",
   "Queue": "q_x86_expr_plus",
   "User": "zhufq",
   "App": "StarCCM1404",
   "JobDescription": "StarCCM1404",
   "JobName": "cubevnc",
   "Cluster": "aip",
   "CPU_Cost": 6.554305415844445,
   "Mem_Cost": 0,
   "GPU_Cost": 0,
   "App_Cost": 0,
   "StartDate": "2020/12/04",
   "Project": "default"
  },
  {
   "CPU_Hours": 30.92114171881333,
   "Mem_GB_Hours": 0.009414714421755937,
   "GPU_Hours": 0,
   "Runtime": 1.2883809049505555,
   "App_Hours": 30.92114171881333,
   "JobId": "23094",
   "Queue": "q_x86_cn_sim",
   "User": "zhufq",
   "App": "Abaqus",
   "JobDescription": "Batch-Abaqus",
   "JobName": "/home/export/online3/amd_share/shangruan/bin/abaqus614 /home/export/base/nsccwuxi_amd/zhufq/WORK/EP04/ABAQUS/1226/EP40_M0_TB_Strength_LC01_1222.inp",
   "Cluster": "aip",
   "CPU_Cost": 6.184228343762666,
   "Mem_Cost": 0,
   "GPU_Cost": 0,
   "App_Cost": 0,
   "StartDate": "2020/12/25",
   "Project": "default"
  },
  {
   "CPU_Hours": 57.17592204092445,
   "Mem_GB_Hours": 0.012598755041943995,
   "GPU_Hours": 0,
   "Runtime": 1.786747563778889,
   "App_Hours": 57.17592204092445,
   "JobId": "23579",
   "Queue": "q_x86_vio_share",
   "User": "zhufq",
   "App": "Abaqus",
   "JobDescription": "28",
   "JobName": "/home/export/online3/amd_share/shangruan/bin/abaqus614 /home/export/base/nsccwuxi_amd/zhufq/WORK/EP04/ABAQUS/1228/Final_rear_opti_2p0_1228.inp",
   "Cluster": "aip",
   "CPU_Cost": 11.435184408184888,
   "Mem_Cost": 0,
   "GPU_Cost": 0,
   "App_Cost": 0,
   "StartDate": "2020/12/28",
   "Project": "default"
  },
  {
   "CPU_Hours": 21.540636984526664,
   "Mem_GB_Hours": 0.00737342596764553,
   "GPU_Hours": 0,
   "Runtime": 0.8975265410219444,
   "App_Hours": 21.540636984526664,
   "JobId": "23341",
   "Queue": "q_x86_vio_share",
   "User": "zhufq",
   "App": "Abaqus",
   "JobDescription": "TB-STR2",
   "JobName": "/home/export/online3/amd_share/shangruan/bin/abaqus614 /home/export/base/nsccwuxi_amd/zhufq/WORK/EP04/ABAQUS/1226/EP40_M0_TB_Strength_LC05_1222.inp",
   "Cluster": "aip",
   "CPU_Cost": 4.308127396905333,
   "Mem_Cost": 0,
   "GPU_Cost": 0,
   "App_Cost": 0,
   "StartDate": "2020/12/27",
   "Project": "default"
  },
  {
   "CPU_Hours": 49.419867393653334,
   "Mem_GB_Hours": 0.0209892127240449,
   "GPU_Hours": 0,
   "Runtime": 3.0887417121033334,
   "App_Hours": 49.419867393653334,
   "JobId": "23623",
   "Queue": "q_x86_cn_sim",
   "User": "zhufq",
   "App": "SC_Batch1404",
   "JobDescription": "SC_Batch1404",
   "JobName": "/home/export/online3/amd_share/shangruan/bin/starccmyaml1404 /home/export/base/nsccwuxi_amd/zhufq/WORK/EP40-temperture/1228-BEIBEN/DeIce_1228.sim",
   "Cluster": "aip",
   "CPU_Cost": 9.883973478730669,
   "Mem_Cost": 0,
   "GPU_Cost": 0,
   "App_Cost": 0,
   "StartDate": "2020/12/28",
   "Project": "default"
  },
  {
   "CPU_Hours": 21.867610376086667,
   "Mem_GB_Hours": 0.0072284029925445735,
   "GPU_Hours": 0,
   "Runtime": 0.9111504323369445,
   "App_Hours": 21.867610376086667,
   "JobId": "23318",
   "Queue": "q_x86_vio_share",
   "User": "zhufq",
   "App": "Abaqus",
   "JobDescription": "TB-STR7",
   "JobName": "/home/export/online3/amd_share/shangruan/bin/abaqus614 /home/export/base/nsccwuxi_amd/zhufq/WORK/EP04/ABAQUS/1226/EP40_M0_TB_Strength_LC03_1222.inp",
   "Cluster": "aip",
   "CPU_Cost": 4.373522075217334,
   "Mem_Cost": 0,
   "GPU_Cost": 0,
   "App_Cost": 0,
   "StartDate": "2020/12/27",
   "Project": "default"
  },
  {
   "CPU_Hours": 63.789134168097775,
   "Mem_GB_Hours": 0.015446539687329631,
   "GPU_Hours": 0,
   "Runtime": 1.9934104427530555,
   "App_Hours": 63.789134168097775,
   "JobId": "23553",
   "Queue": "q_x86_vio_share",
   "User": "zhufq",
   "App": "Abaqus",
   "JobDescription": "Batch-Abaqus",
   "JobName": "/home/export/online3/amd_share/shangruan/bin/abaqus614 /home/export/base/nsccwuxi_amd/zhufq/WORK/EP04/ABAQUS/1227/EP40_M0_TB_Strength_LC09_1222.inp",
   "Cluster": "aip",
   "CPU_Cost": 12.757826833619555,
   "Mem_Cost": 0,
   "GPU_Cost": 0,
   "App_Cost": 0,
   "StartDate": "2020/12/28",
   "Project": "default"
  },
  {
   "CPU_Hours": 4.073606033706667,
   "Mem_GB_Hours": 0.0022525907184704932,
   "GPU_Hours": 0,
   "Runtime": 0.1697335847377778,
   "App_Hours": 4.073606033706667,
   "JobId": "23247",
   "Queue": "q_x86_cn_sim",
   "User": "zhufq",
   "App": "Abaqus",
   "JobDescription": "Batch-Abaqus",
   "JobName": "/home/export/online3/amd_share/shangruan/bin/abaqus614 /home/export/base/nsccwuxi_amd/zhufq/WORK/EP04/ABAQUS/1226/EP40_M0_TB_Strength_LC07_1222.inp",
   "Cluster": "aip",
   "CPU_Cost": 0.8147212067413333,
   "Mem_Cost": 0,
   "GPU_Cost": 0,
   "App_Cost": 0,
   "StartDate": "2020/12/26",
   "Project": "default"
  },
  {
   "CPU_Hours": 0.026666666666666665,
   "Mem_GB_Hours": 0.000014495849609375,
   "GPU_Hours": 0,
   "Runtime": 0.0011111111111111111,
   "App_Hours": 0.026666666666666665,
   "JobId": "20923",
   "Queue": "q_x86_cn_sim",
   "User": "zhufq",
   "App": "SC_Batch1404",
   "JobDescription": "SC_Batch1404",
   "JobName": "/home/export/online3/amd_share/shangruan/bin/starccmyaml1404 /home/export/base/nsccwuxi_amd/zhufq/WORK/EP40-temperture/1214/EP40_PHEV_v12_IDLE_3000rpm_temp_1214_WheelcoverCut_GrilleUp_NewBoard@meshed.sim",
   "Cluster": "aip",
   "CPU_Cost": 0.005333333333333333,
   "Mem_Cost": 0,
   "GPU_Cost": 0,
   "App_Cost": 0,
   "StartDate": "2020/12/14",
   "Project": "default"
  },
  {
   "CPU_Hours": 46.81110798006222,
   "Mem_GB_Hours": 0.011418448931481886,
   "GPU_Hours": 0,
   "Runtime": 1.4628471243769443,
   "App_Hours": 46.81110798006222,
   "JobId": "24071",
   "Queue": "q_x86_vio_share",
   "User": "zhufq",
   "App": "Abaqus",
   "JobDescription": "tb1230",
   "JobName": "/home/export/online3/amd_share/shangruan/bin/abaqus614 /home/export/base/nsccwuxi_amd/zhufq/WORK/EP04/ABAQUS/1229/1228_3/EP40_M0_TB_Strength_LC03_1228.inp",
   "Cluster": "aip",
   "CPU_Cost": 9.362221596012445,
   "Mem_Cost": 0,
   "GPU_Cost": 0,
   "App_Cost": 0,
   "StartDate": "2020/12/30",
   "Project": "default"
  },
  {
   "CPU_Hours": 44.56208951608888,
   "Mem_GB_Hours": 0.009920792239639282,
   "GPU_Hours": 0,
   "Runtime": 1.3925652973777776,
   "App_Hours": 44.56208951608888,
   "JobId": "23607",
   "Queue": "q_x86_vio_share",
   "User": "zhufq",
   "App": "Abaqus",
   "JobDescription": "1229_abaqus",
   "JobName": "/home/export/online3/amd_share/shangruan/bin/abaqus614 /home/export/base/nsccwuxi_amd/zhufq/WORK/EP04/ABAQUS/1229/EP40_M0_TB_Strength_LC02_1228.inp",
   "Cluster": "aip",
   "CPU_Cost": 8.91241790321778,
   "Mem_Cost": 0,
   "GPU_Cost": 0,
   "App_Cost": 0,
   "StartDate": "2020/12/28",
   "Project": "default"
  },
  {
   "CPU_Hours": 0.008888888888888889,
   "Mem_GB_Hours": 0.0000036833021375868053,
   "GPU_Hours": 0,
   "Runtime": 0.0002777777777777778,
   "App_Hours": 0.008888888888888889,
   "JobId": "23080",
   "Queue": "q_x86_vio_share",
   "User": "zhufq",
   "App": "Abaqus",
   "JobDescription": "Batch-Abaqus",
   "JobName": "/home/export/online3/amd_share/shangruan/bin/abaqus614 /home/export/base/nsccwuxi_amd/zhufq/WORK/EP04/ABAQUS/1225/EP40_M0_TB_Strength_LC07_1222.inp",
   "Cluster": "aip",
   "CPU_Cost": 0.0017777777777777779,
   "Mem_Cost": 0,
   "GPU_Cost": 0,
   "App_Cost": 0,
   "StartDate": "2020/12/25",
   "Project": "default"
  },
  {
   "CPU_Hours": 24.027528885846667,
   "Mem_GB_Hours": 0.007020317373450501,
   "GPU_Hours": 0,
   "Runtime": 1.0011470369102777,
   "App_Hours": 24.027528885846667,
   "JobId": "22860",
   "Queue": "q_x86_expr",
   "User": "zhufq",
   "App": "Abaqus",
   "JobDescription": "Batch-Abaqus",
   "JobName": "/home/export/online3/amd_share/shangruan/bin/abaqus614 /home/export/base/nsccwuxi_amd/zhufq/WORK/EP04/ABAQUS/1223/EP40_M0_TB_Strength_LC05_1222.inp",
   "Cluster": "aip",
   "CPU_Cost": 4.8055057771693335,
   "Mem_Cost": 0,
   "GPU_Cost": 0,
   "App_Cost": 0,
   "StartDate": "2020/12/25",
   "Project": "default"
  },
  {
   "CPU_Hours": 28.01477094570667,
   "Mem_GB_Hours": 0.008469013468677029,
   "GPU_Hours": 0,
   "Runtime": 1.1672821227377779,
   "App_Hours": 28.01477094570667,
   "JobId": "23258",
   "Queue": "q_x86_vio_share",
   "User": "zhufq",
   "App": "Abaqus",
   "JobDescription": "TB-STR6",
   "JobName": "/home/export/online3/amd_share/shangruan/bin/abaqus614 /home/export/base/nsccwuxi_amd/zhufq/WORK/EP04/ABAQUS/1226/EP40_M0_TB_Strength_LC04_1222.inp",
   "Cluster": "aip",
   "CPU_Cost": 5.602954189141335,
   "Mem_Cost": 0,
   "GPU_Cost": 0,
   "App_Cost": 0,
   "StartDate": "2020/12/26",
   "Project": "default"
  },
  {
   "CPU_Hours": 27.941260939946662,
   "Mem_GB_Hours": 0.008326470851615668,
   "GPU_Hours": 0,
   "Runtime": 1.1642192058311112,
   "App_Hours": 27.941260939946662,
   "JobId": "23098",
   "Queue": "q_x86_cn_sim",
   "User": "zhufq",
   "App": "Abaqus",
   "JobDescription": "Batch-Abaqus",
   "JobName": "/home/export/online3/amd_share/shangruan/bin/abaqus614 /home/export/base/nsccwuxi_amd/zhufq/WORK/EP04/ABAQUS/1226/EP40_M0_TB_Strength_LC05_1222.inp",
   "Cluster": "aip",
   "CPU_Cost": 5.588252187989334,
   "Mem_Cost": 0,
   "GPU_Cost": 0,
   "App_Cost": 0,
   "StartDate": "2020/12/25",
   "Project": "default"
  },
  {
   "CPU_Hours": 3.6866666666666665,
   "Mem_GB_Hours": 0.0020386240217420792,
   "GPU_Hours": 0,
   "Runtime": 0.15361111111111111,
   "App_Hours": 3.6866666666666665,
   "JobId": "23242",
   "Queue": "q_x86_cn_sim",
   "User": "zhufq",
   "App": "Abaqus",
   "JobDescription": "Batch-Abaqus",
   "JobName": "/home/export/online3/amd_share/shangruan/bin/abaqus614 /home/export/base/nsccwuxi_amd/zhufq/WORK/EP04/ABAQUS/1226/EP40_M0_TB_Strength_LC06_1222.inp",
   "Cluster": "aip",
   "CPU_Cost": 0.7373333333333334,
   "Mem_Cost": 0,
   "GPU_Cost": 0,
   "App_Cost": 0,
   "StartDate": "2020/12/26",
   "Project": "default"
  },
  {
   "CPU_Hours": 49.40173020660667,
   "Mem_GB_Hours": 0.015359750771683108,
   "GPU_Hours": 0,
   "Runtime": 2.0584054252752777,
   "App_Hours": 49.40173020660667,
   "JobId": "23200",
   "Queue": "q_x86_vio_share",
   "User": "zhufq",
   "App": "Abaqus",
   "JobDescription": "REAR_OPTI",
   "JobName": "/home/export/online3/amd_share/shangruan/bin/abaqus614 /home/export/base/nsccwuxi_amd/zhufq/WORK/EP04/ABAQUS/zhongzhuan/front_opti.inp",
   "Cluster": "aip",
   "CPU_Cost": 9.880346041321332,
   "Mem_Cost": 0,
   "GPU_Cost": 0,
   "App_Cost": 0,
   "StartDate": "2020/12/26",
   "Project": "default"
  },
  {
   "CPU_Hours": 0.4261259849333333,
   "Mem_GB_Hours": 0.4149947474285047,
   "GPU_Hours": 0,
   "Runtime": 0.21306299246666666,
   "App_Hours": 0.4261259849333333,
   "JobId": "22676",
   "Queue": "q_x86_cn_sim_plus",
   "User": "zhufq",
   "App": "StarCCM1404",
   "JobDescription": "StarCCM1404",
   "JobName": "cubevnc",
   "Cluster": "aip",
   "CPU_Cost": 0.08522519698666667,
   "Mem_Cost": 0,
   "GPU_Cost": 0,
   "App_Cost": 0,
   "StartDate": "2020/12/23",
   "Project": "default"
  },
  {
   "CPU_Hours": 10.987127236386666,
   "Mem_GB_Hours": 0.0032511394819114553,
   "GPU_Hours": 0,
   "Runtime": 0.45779696818277776,
   "App_Hours": 10.987127236386666,
   "JobId": "21076",
   "Queue": "q_x86_cn_sim",
   "User": "zhufq",
   "App": "Abaqus",
   "JobDescription": "gr",
   "JobName": "/home/export/online3/amd_share/shangruan/bin/abaqus614 /home/export/base/nsccwuxi_amd/zhufq/WORK/EP04/ABAQUS/GR/EP40_M1_Floor_Treading_Stiffness_LC08_V001.inp",
   "Cluster": "aip",
   "CPU_Cost": 2.1974254472773334,
   "Mem_Cost": 0,
   "GPU_Cost": 0,
   "App_Cost": 0,
   "StartDate": "2020/12/15",
   "Project": "default"
  },
  {
   "CPU_Hours": 0.008888888888888889,
   "Mem_GB_Hours": 0.0000036854214138454862,
   "GPU_Hours": 0,
   "Runtime": 0.0002777777777777778,
   "App_Hours": 0.008888888888888889,
   "JobId": "23078",
   "Queue": "q_x86_vio_share",
   "User": "zhufq",
   "App": "Abaqus",
   "JobDescription": "Batch-Abaqus",
   "JobName": "/home/export/online3/amd_share/shangruan/bin/abaqus614 /home/export/base/nsccwuxi_amd/zhufq/WORK/EP04/ABAQUS/1225/EP40_M0_TB_Strength_LC05_1222.inp",
   "Cluster": "aip",
   "CPU_Cost": 0.0017777777777777779,
   "Mem_Cost": 0,
   "GPU_Cost": 0,
   "App_Cost": 0,
   "StartDate": "2020/12/25",
   "Project": "default"
  },
  {
   "CPU_Hours": 3.953333333333333,
   "Mem_GB_Hours": 0.0021879683600531685,
   "GPU_Hours": 0,
   "Runtime": 0.16472222222222221,
   "App_Hours": 3.953333333333333,
   "JobId": "23240",
   "Queue": "q_x86_cn_sim",
   "User": "zhufq",
   "App": "Abaqus",
   "JobDescription": "Batch-Abaqus",
   "JobName": "/home/export/online3/amd_share/shangruan/bin/abaqus614 /home/export/base/nsccwuxi_amd/zhufq/WORK/EP04/ABAQUS/1226/EP40_M0_TB_Strength_LC04_1222.inp",
   "Cluster": "aip",
   "CPU_Cost": 0.7906666666666666,
   "Mem_Cost": 0,
   "GPU_Cost": 0,
   "App_Cost": 0,
   "StartDate": "2020/12/26",
   "Project": "default"
  },
  {
   "CPU_Hours": 62.82060908705779,
   "Mem_GB_Hours": 0.013691277248333222,
   "GPU_Hours": 0,
   "Runtime": 1.963144033970556,
   "App_Hours": 62.82060908705779,
   "JobId": "23463",
   "Queue": "q_x86_vio_share",
   "User": "zhufq",
   "App": "Abaqus",
   "JobDescription": "Batch-Abaqus",
   "JobName": "/home/export/online3/amd_share/shangruan/bin/abaqus614 /home/export/base/nsccwuxi_amd/zhufq/WORK/EP04/ABAQUS/1227/EP40_M0_TB_Strength_LC03_1222.inp",
   "Cluster": "aip",
   "CPU_Cost": 12.564121817411555,
   "Mem_Cost": 0,
   "GPU_Cost": 0,
   "App_Cost": 0,
   "StartDate": "2020/12/28",
   "Project": "default"
  },
  {
   "CPU_Hours": 35.654656643395555,
   "Mem_GB_Hours": 0.008724056282529894,
   "GPU_Hours": 0,
   "Runtime": 1.114208020106111,
   "App_Hours": 35.654656643395555,
   "JobId": "23606",
   "Queue": "q_x86_vio_share",
   "User": "zhufq",
   "App": "Abaqus",
   "JobDescription": "1229_abaqus",
   "JobName": "/home/export/online3/amd_share/shangruan/bin/abaqus614 /home/export/base/nsccwuxi_amd/zhufq/WORK/EP04/ABAQUS/1229/EP40_M0_TB_Strength_LC01_1228.inp",
   "Cluster": "aip",
   "CPU_Cost": 7.130931328679111,
   "Mem_Cost": 0,
   "GPU_Cost": 0,
   "App_Cost": 0,
   "StartDate": "2020/12/28",
   "Project": "default"
  },
  {
   "CPU_Hours": 23.934053694533333,
   "Mem_GB_Hours": 0.007394436224874963,
   "GPU_Hours": 0,
   "Runtime": 0.9972522372722223,
   "App_Hours": 23.934053694533333,
   "JobId": "22857",
   "Queue": "q_x86_expr",
   "User": "zhufq",
   "App": "Abaqus",
   "JobDescription": "Batch-Abaqus",
   "JobName": "/home/export/online3/amd_share/shangruan/bin/abaqus614 /home/export/base/nsccwuxi_amd/zhufq/WORK/EP04/ABAQUS/1223/EP40_M0_TB_Strength_LC02_1222.inp",
   "Cluster": "aip",
   "CPU_Cost": 4.7868107389066665,
   "Mem_Cost": 0,
   "GPU_Cost": 0,
   "App_Cost": 0,
   "StartDate": "2020/12/24",
   "Project": "default"
  },
  {
   "CPU_Hours": 34.821346415073336,
   "Mem_GB_Hours": 0.01106449210176318,
   "GPU_Hours": 0,
   "Runtime": 1.450889433961389,
   "App_Hours": 34.821346415073336,
   "JobId": "21068",
   "Queue": "q_x86_vio_share",
   "User": "zhufq",
   "App": "Abaqus",
   "JobDescription": "tb",
   "JobName": "/home/export/online3/amd_share/shangruan/bin/abaqus614 /home/export/base/nsccwuxi_amd/zhufq/WORK/EP04/ABAQUS/1215_TB_STR/EP40_M1_TB_Strength_LC11_V001.inp",
   "Cluster": "aip",
   "CPU_Cost": 6.964269283014667,
   "Mem_Cost": 0,
   "GPU_Cost": 0,
   "App_Cost": 0,
   "StartDate": "2020/12/16",
   "Project": "default"
  },
  {
   "CPU_Hours": 23.987539237719997,
   "Mem_GB_Hours": 0.0069909004527923604,
   "GPU_Hours": 0,
   "Runtime": 0.9994808015716667,
   "App_Hours": 23.987539237719997,
   "JobId": "22865",
   "Queue": "q_x86_expr",
   "User": "zhufq",
   "App": "Abaqus",
   "JobDescription": "Batch-Abaqus",
   "JobName": "/home/export/online3/amd_share/shangruan/bin/abaqus614 /home/export/base/nsccwuxi_amd/zhufq/WORK/EP04/ABAQUS/1223/EP40_M0_TB_Strength_LC10_1222.inp",
   "Cluster": "aip",
   "CPU_Cost": 4.797507847544,
   "Mem_Cost": 0,
   "GPU_Cost": 0,
   "App_Cost": 0,
   "StartDate": "2020/12/25",
   "Project": "default"
  },
  {
   "CPU_Hours": 8.867121830446667,
   "Mem_GB_Hours": 0.0028817289875447405,
   "GPU_Hours": 0,
   "Runtime": 0.36946340960194446,
   "App_Hours": 8.867121830446667,
   "JobId": "21073",
   "Queue": "q_x86_cn_sim",
   "User": "zhufq",
   "App": "Abaqus",
   "JobDescription": "gr",
   "JobName": "/home/export/online3/amd_share/shangruan/bin/abaqus614 /home/export/base/nsccwuxi_amd/zhufq/WORK/EP04/ABAQUS/GR/EP40_M1_Floor_Treading_Stiffness_LC05_V001.inp",
   "Cluster": "aip",
   "CPU_Cost": 1.7734243660893334,
   "Mem_Cost": 0,
   "GPU_Cost": 0,
   "App_Cost": 0,
   "StartDate": "2020/12/15",
   "Project": "default"
  },
  {
   "CPU_Hours": 0.31166666666666665,
   "Mem_GB_Hours": 0.012078386942545573,
   "GPU_Hours": 0,
   "Runtime": 0.018333333333333333,
   "App_Hours": 0.31166666666666665,
   "JobId": "21952",
   "Queue": "q_x86_cn_sim_plus",
   "User": "zhufq",
   "App": "StarCCM1404",
   "JobDescription": "StarCCM1404",
   "JobName": "cubevnc",
   "Cluster": "aip",
   "CPU_Cost": 0.06233333333333333,
   "Mem_Cost": 0,
   "GPU_Cost": 0,
   "App_Cost": 0,
   "StartDate": "2020/12/19",
   "Project": "default"
  },
  {
   "CPU_Hours": 4.86021482796,
   "Mem_GB_Hours": 0.0014216528342043836,
   "GPU_Hours": 0,
   "Runtime": 0.202508951165,
   "App_Hours": 4.86021482796,
   "JobId": "22931",
   "Queue": "q_x86_vio_share",
   "User": "zhufq",
   "App": "Abaqus",
   "JobDescription": "STR-3",
   "JobName": "/home/export/online3/amd_share/shangruan/bin/abaqus614 /home/export/base/nsccwuxi_amd/zhufq/WORK/EP04/ABAQUS/1223/EP40_M0_TB_Strength_LC01_1222.inp",
   "Cluster": "aip",
   "CPU_Cost": 0.9720429655920001,
   "Mem_Cost": 0,
   "GPU_Cost": 0,
   "App_Cost": 0,
   "StartDate": "2020/12/25",
   "Project": "default"
  },
  {
   "CPU_Hours": 23.934232501033332,
   "Mem_GB_Hours": 0.006978917319677665,
   "GPU_Hours": 0,
   "Runtime": 0.9972596875430555,
   "App_Hours": 23.934232501033332,
   "JobId": "22861",
   "Queue": "q_x86_expr",
   "User": "zhufq",
   "App": "Abaqus",
   "JobDescription": "Batch-Abaqus",
   "JobName": "/home/export/online3/amd_share/shangruan/bin/abaqus614 /home/export/base/nsccwuxi_amd/zhufq/WORK/EP04/ABAQUS/1223/EP40_M0_TB_Strength_LC06_1222.inp",
   "Cluster": "aip",
   "CPU_Cost": 4.786846500206667,
   "Mem_Cost": 0,
   "GPU_Cost": 0,
   "App_Cost": 0,
   "StartDate": "2020/12/25",
   "Project": "default"
  },
  {
   "CPU_Hours": 23.99416470186,
   "Mem_GB_Hours": 0.006986672837829012,
   "GPU_Hours": 0,
   "Runtime": 0.9997568625775001,
   "App_Hours": 23.99416470186,
   "JobId": "22862",
   "Queue": "q_x86_expr",
   "User": "zhufq",
   "App": "Abaqus",
   "JobDescription": "Batch-Abaqus",
   "JobName": "/home/export/online3/amd_share/shangruan/bin/abaqus614 /home/export/base/nsccwuxi_amd/zhufq/WORK/EP04/ABAQUS/1223/EP40_M0_TB_Strength_LC07_1222.inp",
   "Cluster": "aip",
   "CPU_Cost": 4.798832940372,
   "Mem_Cost": 0,
   "GPU_Cost": 0,
   "App_Cost": 0,
   "StartDate": "2020/12/25",
   "Project": "default"
  },
  {
   "CPU_Hours": 0.006666666666666666,
   "Mem_GB_Hours": 0.0000036822424994574653,
   "GPU_Hours": 0,
   "Runtime": 0.0002777777777777778,
   "App_Hours": 0.006666666666666666,
   "JobId": "22671",
   "Queue": "q_x86_vio_share",
   "User": "zhufq",
   "App": "Abaqus",
   "JobDescription": "TB-STR2",
   "JobName": "/home/export/online3/amd_share/shangruan/bin/abaqus614 /home/export/base/nsccwuxi_amd/zhufq/WORK/EP04/ABAQUS/1223/EP40_M0_TB_Strength_LC08_1222.inp",
   "Cluster": "aip",
   "CPU_Cost": 0.0013333333333333333,
   "Mem_Cost": 0,
   "GPU_Cost": 0,
   "App_Cost": 0,
   "StartDate": "2020/12/23",
   "Project": "default"
  },
  {
   "CPU_Hours": 4.08693936704,
   "Mem_GB_Hours": 0.0022612628836101278,
   "GPU_Hours": 0,
   "Runtime": 0.17028914029333334,
   "App_Hours": 4.08693936704,
   "JobId": "23246",
   "Queue": "q_x86_cn_sim",
   "User": "zhufq",
   "App": "Abaqus",
   "JobDescription": "Batch-Abaqus",
   "JobName": "/home/export/online3/amd_share/shangruan/bin/abaqus614 /home/export/base/nsccwuxi_amd/zhufq/WORK/EP04/ABAQUS/1226/EP40_M0_TB_Strength_LC06_1222.inp",
   "Cluster": "aip",
   "CPU_Cost": 0.8173878734080001,
   "Mem_Cost": 0,
   "GPU_Cost": 0,
   "App_Cost": 0,
   "StartDate": "2020/12/26",
   "Project": "default"
  },
  {
   "CPU_Hours": 21.580636984526667,
   "Mem_GB_Hours": 0.00739621878380764,
   "GPU_Hours": 0,
   "Runtime": 0.8991932076886111,
   "App_Hours": 21.580636984526667,
   "JobId": "23340",
   "Queue": "q_x86_vio_share",
   "User": "zhufq",
   "App": "Abaqus",
   "JobDescription": "TB-STR2",
   "JobName": "/home/export/online3/amd_share/shangruan/bin/abaqus614 /home/export/base/nsccwuxi_amd/zhufq/WORK/EP04/ABAQUS/1226/EP40_M0_TB_Strength_LC04_1222.inp",
   "Cluster": "aip",
   "CPU_Cost": 4.316127396905333,
   "Mem_Cost": 0,
   "GPU_Cost": 0,
   "App_Cost": 0,
   "StartDate": "2020/12/27",
   "Project": "default"
  },
  {
   "CPU_Hours": 43.41501083938667,
   "Mem_GB_Hours": 0.01014349743296231,
   "GPU_Hours": 0,
   "Runtime": 1.3567190887308334,
   "App_Hours": 43.41501083938667,
   "JobId": "23464",
   "Queue": "q_x86_vio_share",
   "User": "zhufq",
   "App": "Abaqus",
   "JobDescription": "Batch-Abaqus",
   "JobName": "/home/export/online3/amd_share/shangruan/bin/abaqus614 /home/export/base/nsccwuxi_amd/zhufq/WORK/EP04/ABAQUS/1227/EP40_M0_TB_Strength_LC04_1222.inp",
   "Cluster": "aip",
   "CPU_Cost": 8.683002167877333,
   "Mem_Cost": 0,
   "GPU_Cost": 0,
   "App_Cost": 0,
   "StartDate": "2020/12/28",
   "Project": "default"
  },
  {
   "CPU_Hours": 0.008888888888888889,
   "Mem_GB_Hours": 0.0000036843617757161458,
   "GPU_Hours": 0,
   "Runtime": 0.0002777777777777778,
   "App_Hours": 0.008888888888888889,
   "JobId": "23470",
   "Queue": "q_x86_vio_share",
   "User": "zhufq",
   "App": "Abaqus",
   "JobDescription": "Batch-Abaqus",
   "JobName": "/home/export/online3/amd_share/shangruan/bin/abaqus614 /home/export/base/nsccwuxi_amd/zhufq/WORK/EP04/ABAQUS/1227/EP40_M0_TB_Strength_LC10_1222.inp",
   "Cluster": "aip",
   "CPU_Cost": 0.0017777777777777779,
   "Mem_Cost": 0,
   "GPU_Cost": 0,
   "App_Cost": 0,
   "StartDate": "2020/12/28",
   "Project": "default"
  },
  {
   "CPU_Hours": 0.16277777777777777,
   "Mem_GB_Hours": 0.2584382237328423,
   "GPU_Hours": 0,
   "Runtime": 0.08138888888888889,
   "App_Hours": 0.16277777777777777,
   "JobId": "22996",
   "Queue": "q_x86_cn_sim_plus",
   "User": "zhufq",
   "App": "StarCCM1404",
   "JobDescription": "StarCCM1404",
   "JobName": "cubevnc",
   "Cluster": "aip",
   "CPU_Cost": 0.03255555555555555,
   "Mem_Cost": 0,
   "GPU_Cost": 0,
   "App_Cost": 0,
   "StartDate": "2020/12/25",
   "Project": "default"
  },
  {
   "CPU_Hours": 26.12759372229333,
   "Mem_GB_Hours": 0.008331263923215324,
   "GPU_Hours": 0,
   "Runtime": 1.088649738428889,
   "App_Hours": 26.12759372229333,
   "JobId": "23095",
   "Queue": "q_x86_cn_sim",
   "User": "zhufq",
   "App": "Abaqus",
   "JobDescription": "Batch-Abaqus",
   "JobName": "/home/export/online3/amd_share/shangruan/bin/abaqus614 /home/export/base/nsccwuxi_amd/zhufq/WORK/EP04/ABAQUS/1226/EP40_M0_TB_Strength_LC02_1222.inp",
   "Cluster": "aip",
   "CPU_Cost": 5.225518744458666,
   "Mem_Cost": 0,
   "GPU_Cost": 0,
   "App_Cost": 0,
   "StartDate": "2020/12/25",
   "Project": "default"
  },
  {
   "CPU_Hours": 10.08689077856,
   "Mem_GB_Hours": 0.004222692189761285,
   "GPU_Hours": 0,
   "Runtime": 0.42028711577333333,
   "App_Hours": 10.08689077856,
   "JobId": "21075",
   "Queue": "q_x86_cn_sim",
   "User": "zhufq",
   "App": "Abaqus",
   "JobDescription": "gr",
   "JobName": "/home/export/online3/amd_share/shangruan/bin/abaqus614 /home/export/base/nsccwuxi_amd/zhufq/WORK/EP04/ABAQUS/GR/EP40_M1_Floor_Treading_Stiffness_LC07_V001.inp",
   "Cluster": "aip",
   "CPU_Cost": 2.017378155712,
   "Mem_Cost": 0,
   "GPU_Cost": 0,
   "App_Cost": 0,
   "StartDate": "2020/12/15",
   "Project": "default"
  },
  {
   "CPU_Hours": 0.24666666666666667,
   "Mem_GB_Hours": 0.00013118531968858506,
   "GPU_Hours": 0,
   "Runtime": 0.010277777777777778,
   "App_Hours": 0.24666666666666667,
   "JobId": "19031",
   "Queue": "q_x86_cn_sim",
   "User": "zhufq",
   "App": "StarCCM",
   "JobDescription": "Batch-StarCCM",
   "JobName": "/home/export/online3/amd_share/shangruan/bin/starccmyaml /home/export/base/nsccwuxi_amd/zhufq/WORK/EP40-temperture/20201131/EP40_PHEV_v12_coolingseal_0kph_2700rpm_temp_Cut_1130@meshed.sim",
   "Cluster": "aip",
   "CPU_Cost": 0.04933333333333334,
   "Mem_Cost": 0,
   "GPU_Cost": 0,
   "App_Cost": 0,
   "StartDate": "2020/12/01",
   "Project": "default"
  },
  {
   "CPU_Hours": 0.017777777777777778,
   "Mem_GB_Hours": 0.0000073687235514322916,
   "GPU_Hours": 0,
   "Runtime": 0.0005555555555555556,
   "App_Hours": 0.017777777777777778,
   "JobId": "23471",
   "Queue": "q_x86_vio_share",
   "User": "zhufq",
   "App": "Abaqus",
   "JobDescription": "Batch-Abaqus",
   "JobName": "/home/export/online3/amd_share/shangruan/bin/abaqus614 /home/export/base/nsccwuxi_amd/zhufq/WORK/EP04/ABAQUS/1227/EP40_M0_TB_Strength_LC11_1222.inp",
   "Cluster": "aip",
   "CPU_Cost": 0.0035555555555555557,
   "Mem_Cost": 0,
   "GPU_Cost": 0,
   "App_Cost": 0,
   "StartDate": "2020/12/28",
   "Project": "default"
  },
  {
   "CPU_Hours": 26.264812474069444,
   "Mem_GB_Hours": 1.0554396829495665,
   "GPU_Hours": 0,
   "Runtime": 1.0505924989627777,
   "App_Hours": 26.264812474069444,
   "JobId": "20915",
   "Queue": "q_x86_cn_sim_plus",
   "User": "zhufq",
   "App": "StarCCM1404",
   "JobDescription": "StarCCM1404",
   "JobName": "cubevnc",
   "Cluster": "aip",
   "CPU_Cost": 5.2529624948138895,
   "Mem_Cost": 0,
   "GPU_Cost": 0,
   "App_Cost": 0,
   "StartDate": "2020/12/14",
   "Project": "default"
  },
  {
   "CPU_Hours": 30.767959167366666,
   "Mem_GB_Hours": 0.008954735640888374,
   "GPU_Hours": 0,
   "Runtime": 1.2819982986402776,
   "App_Hours": 30.767959167366666,
   "JobId": "22666",
   "Queue": "q_x86_vio_share",
   "User": "zhufq",
   "App": "Abaqus",
   "JobDescription": "TB-STR2",
   "JobName": "/home/export/online3/amd_share/shangruan/bin/abaqus614 /home/export/base/nsccwuxi_amd/zhufq/WORK/EP04/ABAQUS/1223/EP40_M0_TB_Strength_LC03_1222.inp",
   "Cluster": "aip",
   "CPU_Cost": 6.1535918334733335,
   "Mem_Cost": 0,
   "GPU_Cost": 0,
   "App_Cost": 0,
   "StartDate": "2020/12/23",
   "Project": "default"
  },
  {
   "CPU_Hours": 21.7341482973,
   "Mem_GB_Hours": 0.007724172105656799,
   "GPU_Hours": 0,
   "Runtime": 0.9055895123875,
   "App_Hours": 21.7341482973,
   "JobId": "23099",
   "Queue": "q_x86_cn_sim",
   "User": "zhufq",
   "App": "Abaqus",
   "JobDescription": "Batch-Abaqus",
   "JobName": "/home/export/online3/amd_share/shangruan/bin/abaqus614 /home/export/base/nsccwuxi_amd/zhufq/WORK/EP04/ABAQUS/1226/EP40_M0_TB_Strength_LC06_1222.inp",
   "Cluster": "aip",
   "CPU_Cost": 4.346829659460001,
   "Mem_Cost": 0,
   "GPU_Cost": 0,
   "App_Cost": 0,
   "StartDate": "2020/12/25",
   "Project": "default"
  },
  {
   "CPU_Hours": 248.69944355527775,
   "Mem_GB_Hours": 9.03791470127312,
   "GPU_Hours": 0,
   "Runtime": 9.947977742211108,
   "App_Hours": 248.69944355527775,
   "JobId": "19501",
   "Queue": "q_x86_expr_plus",
   "User": "zhufq",
   "App": "StarCCM1404",
   "JobDescription": "StarCCM1404",
   "JobName": "cubevnc",
   "Cluster": "aip",
   "CPU_Cost": 49.73988871105554,
   "Mem_Cost": 0,
   "GPU_Cost": 0,
   "App_Cost": 0,
   "StartDate": "2020/12/04",
   "Project": "default"
  },
  {
   "CPU_Hours": 0.5316855173983334,
   "Mem_GB_Hours": 0.30981782208483155,
   "GPU_Hours": 0,
   "Runtime": 0.2658427586991667,
   "App_Hours": 0.5316855173983334,
   "JobId": "23850",
   "Queue": "q_x86_cn_sim_plus",
   "User": "zhufq",
   "App": "StarCCM1404",
   "JobDescription": "StarCCM1404",
   "JobName": "cubevnc",
   "Cluster": "aip",
   "CPU_Cost": 0.10633710347966667,
   "Mem_Cost": 0,
   "GPU_Cost": 0,
   "App_Cost": 0,
   "StartDate": "2020/12/29",
   "Project": "default"
  },
  {
   "CPU_Hours": 0.07333333333333333,
   "Mem_GB_Hours": 0.00004052797953287761,
   "GPU_Hours": 0,
   "Runtime": 0.0030555555555555557,
   "App_Hours": 0.07333333333333333,
   "JobId": "23324",
   "Queue": "q_x86_vio_share",
   "User": "zhufq",
   "App": "Abaqus",
   "JobDescription": "TB-STR7",
   "JobName": "/home/export/online3/amd_share/shangruan/bin/abaqus614 /home/export/base/nsccwuxi_amd/zhufq/WORK/EP04/ABAQUS/1226/EP40_M0_TB_Strength_LC09_1222.inp",
   "Cluster": "aip",
   "CPU_Cost": 0.014666666666666668,
   "Mem_Cost": 0,
   "GPU_Cost": 0,
   "App_Cost": 0,
   "StartDate": "2020/12/27",
   "Project": "default"
  },
  {
   "CPU_Hours": 21.480569273120004,
   "Mem_GB_Hours": 0.007766311714883846,
   "GPU_Hours": 0,
   "Runtime": 0.8950237197133334,
   "App_Hours": 21.480569273120004,
   "JobId": "23104",
   "Queue": "q_x86_cn_sim",
   "User": "zhufq",
   "App": "Abaqus",
   "JobDescription": "Batch-Abaqus",
   "JobName": "/home/export/online3/amd_share/shangruan/bin/abaqus614 /home/export/base/nsccwuxi_amd/zhufq/WORK/EP04/ABAQUS/1226/EP40_M0_TB_Strength_LC11_1222.inp",
   "Cluster": "aip",
   "CPU_Cost": 4.296113854624,
   "Mem_Cost": 0,
   "GPU_Cost": 0,
   "App_Cost": 0,
   "StartDate": "2020/12/26",
   "Project": "default"
  },
  {
   "CPU_Hours": 0.02666666666666667,
   "Mem_GB_Hours": 0.000011053085327148437,
   "GPU_Hours": 0,
   "Runtime": 0.0008333333333333334,
   "App_Hours": 0.02666666666666667,
   "JobId": "23616",
   "Queue": "q_x86_vio_share",
   "User": "zhufq",
   "App": "Abaqus",
   "JobDescription": "1229_abaqus",
   "JobName": "/home/export/online3/amd_share/shangruan/bin/abaqus614 /home/export/base/nsccwuxi_amd/zhufq/WORK/EP04/ABAQUS/1229/EP40_M0_TB_Strength_LC11_1228.inp",
   "Cluster": "aip",
   "CPU_Cost": 0.005333333333333334,
   "Mem_Cost": 0,
   "GPU_Cost": 0,
   "App_Cost": 0,
   "StartDate": "2020/12/28",
   "Project": "default"
  },
  {
   "CPU_Hours": 37.04818967369333,
   "Mem_GB_Hours": 0.010848973419377819,
   "GPU_Hours": 0,
   "Runtime": 1.543674569737222,
   "App_Hours": 37.04818967369333,
   "JobId": "22668",
   "Queue": "q_x86_vio_share",
   "User": "zhufq",
   "App": "Abaqus",
   "JobDescription": "TB-STR2",
   "JobName": "/home/export/online3/amd_share/shangruan/bin/abaqus614 /home/export/base/nsccwuxi_amd/zhufq/WORK/EP04/ABAQUS/1223/EP40_M0_TB_Strength_LC05_1222.inp",
   "Cluster": "aip",
   "CPU_Cost": 7.409637934738667,
   "Mem_Cost": 0,
   "GPU_Cost": 0,
   "App_Cost": 0,
   "StartDate": "2020/12/23",
   "Project": "default"
  },
  {
   "CPU_Hours": 37.32160886954,
   "Mem_GB_Hours": 0.01098643666165307,
   "GPU_Hours": 0,
   "Runtime": 1.5550670362308334,
   "App_Hours": 37.32160886954,
   "JobId": "21059",
   "Queue": "q_x86_vio_share",
   "User": "zhufq",
   "App": "Abaqus",
   "JobDescription": "tb",
   "JobName": "/home/export/online3/amd_share/shangruan/bin/abaqus614 /home/export/base/nsccwuxi_amd/zhufq/WORK/EP04/ABAQUS/1215_TB_STR/EP40_M1_TB_Strength_LC01_V001.inp",
   "Cluster": "aip",
   "CPU_Cost": 7.464321773908,
   "Mem_Cost": 0,
   "GPU_Cost": 0,
   "App_Cost": 0,
   "StartDate": "2020/12/15",
   "Project": "default"
  },
  {
   "CPU_Hours": 162.60658424525332,
   "Mem_GB_Hours": 0.04748630246870811,
   "GPU_Hours": 0,
   "Runtime": 6.775274343552221,
   "App_Hours": 162.60658424525332,
   "JobId": "22991",
   "Queue": "q_x86_vio_share",
   "User": "zhufq",
   "App": "Abaqus",
   "JobDescription": "TB-STR4",
   "JobName": "/home/export/online3/amd_share/shangruan/bin/abaqus614 /home/export/base/nsccwuxi_amd/zhufq/WORK/EP04/ABAQUS/1223/EP40_M0_TB_Strength_LC02_1222.inp",
   "Cluster": "aip",
   "CPU_Cost": 32.52131684905068,
   "Mem_Cost": 0,
   "GPU_Cost": 0,
   "App_Cost": 0,
   "StartDate": "2020/12/25",
   "Project": "default"
  },
  {
   "CPU_Hours": 23.947547460100004,
   "Mem_GB_Hours": 0.0069702429385285055,
   "GPU_Hours": 0,
   "Runtime": 0.9978144775041665,
   "App_Hours": 23.947547460100004,
   "JobId": "22863",
   "Queue": "q_x86_expr",
   "User": "zhufq",
   "App": "Abaqus",
   "JobDescription": "Batch-Abaqus",
   "JobName": "/home/export/online3/amd_share/shangruan/bin/abaqus614 /home/export/base/nsccwuxi_amd/zhufq/WORK/EP04/ABAQUS/1223/EP40_M0_TB_Strength_LC08_1222.inp",
   "Cluster": "aip",
   "CPU_Cost": 4.7895094920200005,
   "Mem_Cost": 0,
   "GPU_Cost": 0,
   "App_Cost": 0,
   "StartDate": "2020/12/25",
   "Project": "default"
  },
  {
   "CPU_Hours": 0,
   "Mem_GB_Hours": 0,
   "GPU_Hours": 0,
   "Runtime": 0,
   "App_Hours": 0,
   "JobId": "23261",
   "Queue": "q_x86_vio_share",
   "User": "zhufq",
   "App": "Abaqus",
   "JobDescription": "TB-STR6",
   "JobName": "/home/export/online3/amd_share/shangruan/bin/abaqus614 /home/export/base/nsccwuxi_amd/zhufq/WORK/EP04/ABAQUS/1226/EP40_M0_TB_Strength_LC07_1222.inp",
   "Cluster": "aip",
   "CPU_Cost": 0,
   "Mem_Cost": 0,
   "GPU_Cost": 0,
   "App_Cost": 0,
   "StartDate": "2020/12/26",
   "Project": "default"
  },
  {
   "CPU_Hours": 20.920844960893334,
   "Mem_GB_Hours": 0.00668383459332461,
   "GPU_Hours": 0,
   "Runtime": 0.8717018733705555,
   "App_Hours": 20.920844960893334,
   "JobId": "23101",
   "Queue": "q_x86_cn_sim",
   "User": "zhufq",
   "App": "Abaqus",
   "JobDescription": "Batch-Abaqus",
   "JobName": "/home/export/online3/amd_share/shangruan/bin/abaqus614 /home/export/base/nsccwuxi_amd/zhufq/WORK/EP04/ABAQUS/1226/EP40_M0_TB_Strength_LC08_1222.inp",
   "Cluster": "aip",
   "CPU_Cost": 4.184168992178666,
   "Mem_Cost": 0,
   "GPU_Cost": 0,
   "App_Cost": 0,
   "StartDate": "2020/12/26",
   "Project": "default"
  },
  {
   "CPU_Hours": 0.008888888888888889,
   "Mem_GB_Hours": 0.0000036854214138454862,
   "GPU_Hours": 0,
   "Runtime": 0.0002777777777777778,
   "App_Hours": 0.008888888888888889,
   "JobId": "24073",
   "Queue": "q_x86_vio_share",
   "User": "zhufq",
   "App": "Abaqus",
   "JobDescription": "tb1230",
   "JobName": "/home/export/online3/amd_share/shangruan/bin/abaqus614 /home/export/base/nsccwuxi_amd/zhufq/WORK/EP04/ABAQUS/1229/1228_3/EP40_M0_TB_Strength_LC05_1228.inp",
   "Cluster": "aip",
   "CPU_Cost": 0.0017777777777777779,
   "Mem_Cost": 0,
   "GPU_Cost": 0,
   "App_Cost": 0,
   "StartDate": "2020/12/30",
   "Project": "default"
  },
  {
   "CPU_Hours": 39.39722772568889,
   "Mem_GB_Hours": 0.009241532493195216,
   "GPU_Hours": 0,
   "Runtime": 1.231163366427778,
   "App_Hours": 39.39722772568889,
   "JobId": "24077",
   "Queue": "q_x86_vio_share",
   "User": "zhufq",
   "App": "Abaqus",
   "JobDescription": "tb1230",
   "JobName": "/home/export/online3/amd_share/shangruan/bin/abaqus614 /home/export/base/nsccwuxi_amd/zhufq/WORK/EP04/ABAQUS/1229/1228_3/EP40_M0_TB_Strength_LC09_1228.inp",
   "Cluster": "aip",
   "CPU_Cost": 7.879445545137778,
   "Mem_Cost": 0,
   "GPU_Cost": 0,
   "App_Cost": 0,
   "StartDate": "2020/12/30",
   "Project": "default"
  },
  {
   "CPU_Hours": 0.008888888888888889,
   "Mem_GB_Hours": 0.0000036854214138454862,
   "GPU_Hours": 0,
   "Runtime": 0.0002777777777777778,
   "App_Hours": 0.008888888888888889,
   "JobId": "23610",
   "Queue": "q_x86_vio_share",
   "User": "zhufq",
   "App": "Abaqus",
   "JobDescription": "1229_abaqus",
   "JobName": "/home/export/online3/amd_share/shangruan/bin/abaqus614 /home/export/base/nsccwuxi_amd/zhufq/WORK/EP04/ABAQUS/1229/EP40_M0_TB_Strength_LC05_1228.inp",
   "Cluster": "aip",
   "CPU_Cost": 0.0017777777777777779,
   "Mem_Cost": 0,
   "GPU_Cost": 0,
   "App_Cost": 0,
   "StartDate": "2020/12/28",
   "Project": "default"
  },
  {
   "CPU_Hours": 96.97010702290665,
   "Mem_GB_Hours": 0.02887052781165879,
   "GPU_Hours": 0,
   "Runtime": 4.0404211259544445,
   "App_Hours": 96.97010702290665,
   "JobId": "21066",
   "Queue": "q_x86_vio_share",
   "User": "zhufq",
   "App": "Abaqus",
   "JobDescription": "tb",
   "JobName": "/home/export/online3/amd_share/shangruan/bin/abaqus614 /home/export/base/nsccwuxi_amd/zhufq/WORK/EP04/ABAQUS/1215_TB_STR/EP40_M1_TB_Strength_LC09_V001.inp",
   "Cluster": "aip",
   "CPU_Cost": 19.394021404581334,
   "Mem_Cost": 0,
   "GPU_Cost": 0,
   "App_Cost": 0,
   "StartDate": "2020/12/16",
   "Project": "default"
  },
  {
   "CPU_Hours": 1.4444444444444444,
   "Mem_GB_Hours": 0.05212109035915798,
   "GPU_Hours": 0,
   "Runtime": 0.057777777777777775,
   "App_Hours": 1.4444444444444444,
   "JobId": "19409",
   "Queue": "q_x86_expr_plus",
   "User": "zhufq",
   "App": "StarCCM1404",
   "JobDescription": "StarCCM1404",
   "JobName": "cubevnc",
   "Cluster": "aip",
   "CPU_Cost": 0.2888888888888889,
   "Mem_Cost": 0,
   "GPU_Cost": 0,
   "App_Cost": 0,
   "StartDate": "2020/12/04",
   "Project": "default"
  },
  {
   "CPU_Hours": 3.6135109481733334,
   "Mem_GB_Hours": 0.0014096500629733701,
   "GPU_Hours": 0,
   "Runtime": 0.1505629561738889,
   "App_Hours": 3.6135109481733334,
   "JobId": "23248",
   "Queue": "q_x86_cn_sim",
   "User": "zhufq",
   "App": "Abaqus",
   "JobDescription": "Batch-Abaqus",
   "JobName": "/home/export/online3/amd_share/shangruan/bin/abaqus614 /home/export/base/nsccwuxi_amd/zhufq/WORK/EP04/ABAQUS/1226/EP40_M0_TB_Strength_LC08_1222.inp",
   "Cluster": "aip",
   "CPU_Cost": 0.7227021896346668,
   "Mem_Cost": 0,
   "GPU_Cost": 0,
   "App_Cost": 0,
   "StartDate": "2020/12/26",
   "Project": "default"
  },
  {
   "CPU_Hours": 10.033584475673333,
   "Mem_GB_Hours": 0.003949990417905937,
   "GPU_Hours": 0,
   "Runtime": 0.41806601981972225,
   "App_Hours": 10.033584475673333,
   "JobId": "21071",
   "Queue": "q_x86_cn_sim",
   "User": "zhufq",
   "App": "Abaqus",
   "JobDescription": "gr",
   "JobName": "/home/export/online3/amd_share/shangruan/bin/abaqus614 /home/export/base/nsccwuxi_amd/zhufq/WORK/EP04/ABAQUS/GR/EP40_M1_Floor_Treading_Stiffness_LC03_V001.inp",
   "Cluster": "aip",
   "CPU_Cost": 2.006716895134667,
   "Mem_Cost": 0,
   "GPU_Cost": 0,
   "App_Cost": 0,
   "StartDate": "2020/12/15",
   "Project": "default"
  },
  {
   "CPU_Hours": 0.7638888888888888,
   "Mem_GB_Hours": 0.022401820288764106,
   "GPU_Hours": 0,
   "Runtime": 0.030555555555555555,
   "App_Hours": 0.7638888888888888,
   "JobId": "19429",
   "Queue": "q_x86_expr_plus",
   "User": "zhufq",
   "App": "StarCCM1404",
   "JobDescription": "StarCCM1404",
   "JobName": "cubevnc",
   "Cluster": "aip",
   "CPU_Cost": 0.1527777777777778,
   "Mem_Cost": 0,
   "GPU_Cost": 0,
   "App_Cost": 0,
   "StartDate": "2020/12/04",
   "Project": "default"
  },
  {
   "CPU_Hours": 8.853788497113333,
   "Mem_GB_Hours": 0.002857810618650268,
   "GPU_Hours": 0,
   "Runtime": 0.3689078540463889,
   "App_Hours": 8.853788497113333,
   "JobId": "21072",
   "Queue": "q_x86_cn_sim",
   "User": "zhufq",
   "App": "Abaqus",
   "JobDescription": "gr",
   "JobName": "/home/export/online3/amd_share/shangruan/bin/abaqus614 /home/export/base/nsccwuxi_amd/zhufq/WORK/EP04/ABAQUS/GR/EP40_M1_Floor_Treading_Stiffness_LC04_V001.inp",
   "Cluster": "aip",
   "CPU_Cost": 1.7707576994226668,
   "Mem_Cost": 0,
   "GPU_Cost": 0,
   "App_Cost": 0,
   "StartDate": "2020/12/15",
   "Project": "default"
  },
  {
   "CPU_Hours": 0,
   "Mem_GB_Hours": 0,
   "GPU_Hours": 0,
   "Runtime": 0,
   "App_Hours": 0,
   "JobId": "23323",
   "Queue": "q_x86_vio_share",
   "User": "zhufq",
   "App": "Abaqus",
   "JobDescription": "TB-STR7",
   "JobName": "/home/export/online3/amd_share/shangruan/bin/abaqus614 /home/export/base/nsccwuxi_amd/zhufq/WORK/EP04/ABAQUS/1226/EP40_M0_TB_Strength_LC08_1222.inp",
   "Cluster": "aip",
   "CPU_Cost": 0,
   "Mem_Cost": 0,
   "GPU_Cost": 0,
   "App_Cost": 0,
   "StartDate": "2020/12/27",
   "Project": "default"
  },
  {
   "CPU_Hours": 34.890238390204445,
   "Mem_GB_Hours": 0.009056455642470615,
   "GPU_Hours": 0,
   "Runtime": 1.090319949693889,
   "App_Hours": 34.890238390204445,
   "JobId": "24070",
   "Queue": "q_x86_vio_share",
   "User": "zhufq",
   "App": "Abaqus",
   "JobDescription": "tb1230",
   "JobName": "/home/export/online3/amd_share/shangruan/bin/abaqus614 /home/export/base/nsccwuxi_amd/zhufq/WORK/EP04/ABAQUS/1229/1228_3/EP40_M0_TB_Strength_LC02_1228.inp",
   "Cluster": "aip",
   "CPU_Cost": 6.978047678040889,
   "Mem_Cost": 0,
   "GPU_Cost": 0,
   "App_Cost": 0,
   "StartDate": "2020/12/30",
   "Project": "default"
  },
  {
   "CPU_Hours": 52.07321051406222,
   "Mem_GB_Hours": 0.012170694366648527,
   "GPU_Hours": 0,
   "Runtime": 1.6272878285644443,
   "App_Hours": 52.07321051406222,
   "JobId": "23554",
   "Queue": "q_x86_vio_share",
   "User": "zhufq",
   "App": "Abaqus",
   "JobDescription": "Batch-Abaqus",
   "JobName": "/home/export/online3/amd_share/shangruan/bin/abaqus614 /home/export/base/nsccwuxi_amd/zhufq/WORK/EP04/ABAQUS/1227/EP40_M0_TB_Strength_LC10_1222.inp",
   "Cluster": "aip",
   "CPU_Cost": 10.414642102812445,
   "Mem_Cost": 0,
   "GPU_Cost": 0,
   "App_Cost": 0,
   "StartDate": "2020/12/28",
   "Project": "default"
  },
  {
   "CPU_Hours": 0.008888888888888889,
   "Mem_GB_Hours": 0.0000036854214138454862,
   "GPU_Hours": 0,
   "Runtime": 0.0002777777777777778,
   "App_Hours": 0.008888888888888889,
   "JobId": "23615",
   "Queue": "q_x86_vio_share",
   "User": "zhufq",
   "App": "Abaqus",
   "JobDescription": "1229_abaqus",
   "JobName": "/home/export/online3/amd_share/shangruan/bin/abaqus614 /home/export/base/nsccwuxi_amd/zhufq/WORK/EP04/ABAQUS/1229/EP40_M0_TB_Strength_LC10_1228.inp",
   "Cluster": "aip",
   "CPU_Cost": 0.0017777777777777779,
   "Mem_Cost": 0,
   "GPU_Cost": 0,
   "App_Cost": 0,
   "StartDate": "2020/12/28",
   "Project": "default"
  },
  {
   "CPU_Hours": 0.008888888888888889,
   "Mem_GB_Hours": 0.0000036854214138454862,
   "GPU_Hours": 0,
   "Runtime": 0.0002777777777777778,
   "App_Hours": 0.008888888888888889,
   "JobId": "23469",
   "Queue": "q_x86_vio_share",
   "User": "zhufq",
   "App": "Abaqus",
   "JobDescription": "Batch-Abaqus",
   "JobName": "/home/export/online3/amd_share/shangruan/bin/abaqus614 /home/export/base/nsccwuxi_amd/zhufq/WORK/EP04/ABAQUS/1227/EP40_M0_TB_Strength_LC09_1222.inp",
   "Cluster": "aip",
   "CPU_Cost": 0.0017777777777777779,
   "Mem_Cost": 0,
   "GPU_Cost": 0,
   "App_Cost": 0,
   "StartDate": "2020/12/28",
   "Project": "default"
  },
  {
   "CPU_Hours": 0.008888888888888889,
   "Mem_GB_Hours": 0.0000036854214138454862,
   "GPU_Hours": 0,
   "Runtime": 0.0002777777777777778,
   "App_Hours": 0.008888888888888889,
   "JobId": "23084",
   "Queue": "q_x86_vio_share",
   "User": "zhufq",
   "App": "Abaqus",
   "JobDescription": "Batch-Abaqus",
   "JobName": "/home/export/online3/amd_share/shangruan/bin/abaqus614 /home/export/base/nsccwuxi_amd/zhufq/WORK/EP04/ABAQUS/1225/EP40_M0_TB_Strength_LC11_1222.inp",
   "Cluster": "aip",
   "CPU_Cost": 0.0017777777777777779,
   "Mem_Cost": 0,
   "GPU_Cost": 0,
   "App_Cost": 0,
   "StartDate": "2020/12/25",
   "Project": "default"
  },
  {
   "CPU_Hours": 35.26351768638222,
   "Mem_GB_Hours": 0.009131777767270342,
   "GPU_Hours": 0,
   "Runtime": 1.1019849276994444,
   "App_Hours": 35.26351768638222,
   "JobId": "23937",
   "Queue": "q_x86_vio_share",
   "User": "zhufq",
   "App": "Abaqus",
   "JobDescription": "Batch-Abaqus",
   "JobName": "/home/export/online3/amd_share/shangruan/bin/abaqus614 /home/export/base/nsccwuxi_amd/zhufq/WORK/EP04/ABAQUS/1229/1228_2/EP40_M0_TB_Strength_LC01_1228.inp",
   "Cluster": "aip",
   "CPU_Cost": 7.052703537276445,
   "Mem_Cost": 0,
   "GPU_Cost": 0,
   "App_Cost": 0,
   "StartDate": "2020/12/30",
   "Project": "default"
  },
  {
   "CPU_Hours": 0.26,
   "Mem_GB_Hours": 0.0001381524403889974,
   "GPU_Hours": 0,
   "Runtime": 0.010833333333333334,
   "App_Hours": 0.26,
   "JobId": "19500",
   "Queue": "q_x86_vio_share",
   "User": "zhufq",
   "App": "StarCCM",
   "JobDescription": "Batch-StarCCM",
   "JobName": "/home/export/online3/amd_share/shangruan/bin/starccmyaml /home/export/base/nsccwuxi_amd/zhufq/WORK/EP40-temperture/1204/EP40_PHEV_v12_0kph_2700rpm_temp_1203@meshed.sim",
   "Cluster": "aip",
   "CPU_Cost": 0.052000000000000005,
   "Mem_Cost": 0,
   "GPU_Cost": 0,
   "App_Cost": 0,
   "StartDate": "2020/12/04",
   "Project": "default"
  },
  {
   "CPU_Hours": 31.047818316919997,
   "Mem_GB_Hours": 0.009500061257417388,
   "GPU_Hours": 0,
   "Runtime": 1.2936590965383332,
   "App_Hours": 31.047818316919997,
   "JobId": "21064",
   "Queue": "q_x86_vio_share",
   "User": "zhufq",
   "App": "Abaqus",
   "JobDescription": "tb",
   "JobName": "/home/export/online3/amd_share/shangruan/bin/abaqus614 /home/export/base/nsccwuxi_amd/zhufq/WORK/EP04/ABAQUS/1215_TB_STR/EP40_M1_TB_Strength_LC07_V001.inp",
   "Cluster": "aip",
   "CPU_Cost": 6.209563663384,
   "Mem_Cost": 0,
   "GPU_Cost": 0,
   "App_Cost": 0,
   "StartDate": "2020/12/16",
   "Project": "default"
  },
  {
   "CPU_Hours": 326.2428542444792,
   "Mem_GB_Hours": 17.167171273284485,
   "GPU_Hours": 0,
   "Runtime": 13.049714169779168,
   "App_Hours": 326.2428542444792,
   "JobId": "19608",
   "Queue": "q_x86_cn_sim_plus",
   "User": "zhufq",
   "App": "StarCCM1404",
   "JobDescription": "StarCCM1404",
   "JobName": "cubevnc",
   "Cluster": "aip",
   "CPU_Cost": 65.24857084889581,
   "Mem_Cost": 0,
   "GPU_Cost": 0,
   "App_Cost": 0,
   "StartDate": "2020/12/05",
   "Project": "default"
  },
  {
   "CPU_Hours": 0.6194639918038889,
   "Mem_GB_Hours": 0.39253442646342096,
   "GPU_Hours": 0,
   "Runtime": 0.30973199590194445,
   "App_Hours": 0.6194639918038889,
   "JobId": "22729",
   "Queue": "q_x86_cn_sim_plus",
   "User": "zhufq",
   "App": "StarCCM1404",
   "JobDescription": "StarCCM1404",
   "JobName": "cubevnc",
   "Cluster": "aip",
   "CPU_Cost": 0.1238927983607778,
   "Mem_Cost": 0,
   "GPU_Cost": 0,
   "App_Cost": 0,
   "StartDate": "2020/12/24",
   "Project": "default"
  },
  {
   "CPU_Hours": 0.008888888888888889,
   "Mem_GB_Hours": 0.0000036854214138454862,
   "GPU_Hours": 0,
   "Runtime": 0.0002777777777777778,
   "App_Hours": 0.008888888888888889,
   "JobId": "23082",
   "Queue": "q_x86_vio_share",
   "User": "zhufq",
   "App": "Abaqus",
   "JobDescription": "Batch-Abaqus",
   "JobName": "/home/export/online3/amd_share/shangruan/bin/abaqus614 /home/export/base/nsccwuxi_amd/zhufq/WORK/EP04/ABAQUS/1225/EP40_M0_TB_Strength_LC09_1222.inp",
   "Cluster": "aip",
   "CPU_Cost": 0.0017777777777777779,
   "Mem_Cost": 0,
   "GPU_Cost": 0,
   "App_Cost": 0,
   "StartDate": "2020/12/25",
   "Project": "default"
  },
  {
   "CPU_Hours": 0.38666666666666666,
   "Mem_GB_Hours": 0.00021387736002604165,
   "GPU_Hours": 0,
   "Runtime": 0.01611111111111111,
   "App_Hours": 0.38666666666666666,
   "JobId": "23239",
   "Queue": "q_x86_cn_sim",
   "User": "zhufq",
   "App": "Abaqus",
   "JobDescription": "Batch-Abaqus",
   "JobName": "/home/export/online3/amd_share/shangruan/bin/abaqus614 /home/export/base/nsccwuxi_amd/zhufq/WORK/EP04/ABAQUS/1226/EP40_M0_TB_Strength_1222.inp",
   "Cluster": "aip",
   "CPU_Cost": 0.07733333333333334,
   "Mem_Cost": 0,
   "GPU_Cost": 0,
   "App_Cost": 0,
   "StartDate": "2020/12/26",
   "Project": "default"
  },
  {
   "CPU_Hours": 23.774124548706666,
   "Mem_GB_Hours": 0.006932346630030392,
   "GPU_Hours": 0,
   "Runtime": 0.9905885228627779,
   "App_Hours": 23.774124548706666,
   "JobId": "22859",
   "Queue": "q_x86_expr",
   "User": "zhufq",
   "App": "Abaqus",
   "JobDescription": "Batch-Abaqus",
   "JobName": "/home/export/online3/amd_share/shangruan/bin/abaqus614 /home/export/base/nsccwuxi_amd/zhufq/WORK/EP04/ABAQUS/1223/EP40_M0_TB_Strength_LC04_1222.inp",
   "Cluster": "aip",
   "CPU_Cost": 4.754824909741334,
   "Mem_Cost": 0,
   "GPU_Cost": 0,
   "App_Cost": 0,
   "StartDate": "2020/12/24",
   "Project": "default"
  },
  {
   "CPU_Hours": 21.64094370942,
   "Mem_GB_Hours": 0.007097130482532237,
   "GPU_Hours": 0,
   "Runtime": 0.9017059878925,
   "App_Hours": 21.64094370942,
   "JobId": "23319",
   "Queue": "q_x86_vio_share",
   "User": "zhufq",
   "App": "Abaqus",
   "JobDescription": "TB-STR7",
   "JobName": "/home/export/online3/amd_share/shangruan/bin/abaqus614 /home/export/base/nsccwuxi_amd/zhufq/WORK/EP04/ABAQUS/1226/EP40_M0_TB_Strength_LC04_1222.inp",
   "Cluster": "aip",
   "CPU_Cost": 4.328188741884,
   "Mem_Cost": 0,
   "GPU_Cost": 0,
   "App_Cost": 0,
   "StartDate": "2020/12/27",
   "Project": "default"
  },
  {
   "CPU_Hours": 0.008888888888888889,
   "Mem_GB_Hours": 0.0000036843617757161458,
   "GPU_Hours": 0,
   "Runtime": 0.0002777777777777778,
   "App_Hours": 0.008888888888888889,
   "JobId": "23614",
   "Queue": "q_x86_vio_share",
   "User": "zhufq",
   "App": "Abaqus",
   "JobDescription": "1229_abaqus",
   "JobName": "/home/export/online3/amd_share/shangruan/bin/abaqus614 /home/export/base/nsccwuxi_amd/zhufq/WORK/EP04/ABAQUS/1229/EP40_M0_TB_Strength_LC09_1228.inp",
   "Cluster": "aip",
   "CPU_Cost": 0.0017777777777777779,
   "Mem_Cost": 0,
   "GPU_Cost": 0,
   "App_Cost": 0,
   "StartDate": "2020/12/28",
   "Project": "default"
  },
  {
   "CPU_Hours": 261.30933104184,
   "Mem_GB_Hours": 0.05557375944427656,
   "GPU_Hours": 0,
   "Runtime": 8.1659165950575,
   "App_Hours": 261.30933104184,
   "JobId": "21998",
   "Queue": "q_x86_vio_share",
   "User": "zhufq",
   "App": "SC_Batch1404",
   "JobDescription": "SC_Batch1404",
   "JobName": "/home/export/online3/amd_share/shangruan/bin/starccmyaml1404 /home/export/base/nsccwuxi_amd/zhufq/WORK/EP40-temperture/1219/EP40_PHEV_v12_IDLE_2700rpm_temp_NewCAS_1218@meshed.sim",
   "Cluster": "aip",
   "CPU_Cost": 52.261866208368005,
   "Mem_Cost": 0,
   "GPU_Cost": 0,
   "App_Cost": 0,
   "StartDate": "2020/12/19",
   "Project": "default"
  },
  {
   "CPU_Hours": 70.29616464261335,
   "Mem_GB_Hours": 0.016805690019181592,
   "GPU_Hours": 0,
   "Runtime": 2.196755145081667,
   "App_Hours": 70.29616464261335,
   "JobId": "23462",
   "Queue": "q_x86_vio_share",
   "User": "zhufq",
   "App": "Abaqus",
   "JobDescription": "Batch-Abaqus",
   "JobName": "/home/export/online3/amd_share/shangruan/bin/abaqus614 /home/export/base/nsccwuxi_amd/zhufq/WORK/EP04/ABAQUS/1227/EP40_M0_TB_Strength_LC02_1222.inp",
   "Cluster": "aip",
   "CPU_Cost": 14.059232928522668,
   "Mem_Cost": 0,
   "GPU_Cost": 0,
   "App_Cost": 0,
   "StartDate": "2020/12/28",
   "Project": "default"
  },
  {
   "CPU_Hours": 0.8567080333405555,
   "Mem_GB_Hours": 0.4192707088289991,
   "GPU_Hours": 0,
   "Runtime": 0.4283540166702777,
   "App_Hours": 0.8567080333405555,
   "JobId": "22142",
   "Queue": "q_x86_cn_sim_plus",
   "User": "zhufq",
   "App": "StarCCM1404",
   "JobDescription": "StarCCM1404",
   "JobName": "cubevnc",
   "Cluster": "aip",
   "CPU_Cost": 0.1713416066681111,
   "Mem_Cost": 0,
   "GPU_Cost": 0,
   "App_Cost": 0,
   "StartDate": "2020/12/21",
   "Project": "default"
  },
  {
   "CPU_Hours": 47.23743539408889,
   "Mem_GB_Hours": 0.01068409731466493,
   "GPU_Hours": 0,
   "Runtime": 1.4761698560652778,
   "App_Hours": 47.23743539408889,
   "JobId": "23468",
   "Queue": "q_x86_vio_share",
   "User": "zhufq",
   "App": "Abaqus",
   "JobDescription": "Batch-Abaqus",
   "JobName": "/home/export/online3/amd_share/shangruan/bin/abaqus614 /home/export/base/nsccwuxi_amd/zhufq/WORK/EP04/ABAQUS/1227/EP40_M0_TB_Strength_LC08_1222.inp",
   "Cluster": "aip",
   "CPU_Cost": 9.447487078817778,
   "Mem_Cost": 0,
   "GPU_Cost": 0,
   "App_Cost": 0,
   "StartDate": "2020/12/28",
   "Project": "default"
  },
  {
   "CPU_Hours": 37.69056840076444,
   "Mem_GB_Hours": 0.008290539603241158,
   "GPU_Hours": 0,
   "Runtime": 1.1778302625238888,
   "App_Hours": 37.69056840076444,
   "JobId": "23808",
   "Queue": "q_x86_vio_share",
   "User": "zhufq",
   "App": "Abaqus",
   "JobDescription": "tb1229",
   "JobName": "/home/export/online3/amd_share/shangruan/bin/abaqus614 /home/export/base/nsccwuxi_amd/zhufq/WORK/EP04/ABAQUS/1229/1228_2/EP40_M0_TB_Strength_LC01_1228.inp",
   "Cluster": "aip",
   "CPU_Cost": 7.53811368015289,
   "Mem_Cost": 0,
   "GPU_Cost": 0,
   "App_Cost": 0,
   "StartDate": "2020/12/29",
   "Project": "default"
  },
  {
   "CPU_Hours": 23.994096602746662,
   "Mem_GB_Hours": 0.006992955105001182,
   "GPU_Hours": 0,
   "Runtime": 0.9997540251144444,
   "App_Hours": 23.994096602746662,
   "JobId": "22866",
   "Queue": "q_x86_expr",
   "User": "zhufq",
   "App": "Abaqus",
   "JobDescription": "Batch-Abaqus",
   "JobName": "/home/export/online3/amd_share/shangruan/bin/abaqus614 /home/export/base/nsccwuxi_amd/zhufq/WORK/EP04/ABAQUS/1223/EP40_M0_TB_Strength_LC11_1222.inp",
   "Cluster": "aip",
   "CPU_Cost": 4.798819320549334,
   "Mem_Cost": 0,
   "GPU_Cost": 0,
   "App_Cost": 0,
   "StartDate": "2020/12/25",
   "Project": "default"
  },
  {
   "CPU_Hours": 0.06,
   "Mem_GB_Hours": 0.00003314971923828125,
   "GPU_Hours": 0,
   "Runtime": 0.0025,
   "App_Hours": 0.06,
   "JobId": "23322",
   "Queue": "q_x86_vio_share",
   "User": "zhufq",
   "App": "Abaqus",
   "JobDescription": "TB-STR7",
   "JobName": "/home/export/online3/amd_share/shangruan/bin/abaqus614 /home/export/base/nsccwuxi_amd/zhufq/WORK/EP04/ABAQUS/1226/EP40_M0_TB_Strength_LC07_1222.inp",
   "Cluster": "aip",
   "CPU_Cost": 0.012,
   "Mem_Cost": 0,
   "GPU_Cost": 0,
   "App_Cost": 0,
   "StartDate": "2020/12/27",
   "Project": "default"
  },
  {
   "CPU_Hours": 31.521194842786667,
   "Mem_GB_Hours": 0.009810287780987264,
   "GPU_Hours": 0,
   "Runtime": 1.3133831184494444,
   "App_Hours": 31.521194842786667,
   "JobId": "21063",
   "Queue": "q_x86_vio_share",
   "User": "zhufq",
   "App": "Abaqus",
   "JobDescription": "tb",
   "JobName": "/home/export/online3/amd_share/shangruan/bin/abaqus614 /home/export/base/nsccwuxi_amd/zhufq/WORK/EP04/ABAQUS/1215_TB_STR/EP40_M1_TB_Strength_LC06_V001.inp",
   "Cluster": "aip",
   "CPU_Cost": 6.304238968557333,
   "Mem_Cost": 0,
   "GPU_Cost": 0,
   "App_Cost": 0,
   "StartDate": "2020/12/16",
   "Project": "default"
  },
  {
   "CPU_Hours": 4.36,
   "Mem_GB_Hours": 0.002411651611328125,
   "GPU_Hours": 0,
   "Runtime": 0.18166666666666667,
   "App_Hours": 4.36,
   "JobId": "23236",
   "Queue": "q_x86_vio_share",
   "User": "zhufq",
   "App": "Abaqus",
   "JobDescription": "TB-STR5",
   "JobName": "/home/export/online3/amd_share/shangruan/bin/abaqus614 /home/export/base/nsccwuxi_amd/zhufq/WORK/EP04/ABAQUS/1226/EP40_M0_TB_Strength_LC02_1222.inp",
   "Cluster": "aip",
   "CPU_Cost": 0.8720000000000001,
   "Mem_Cost": 0,
   "GPU_Cost": 0,
   "App_Cost": 0,
   "StartDate": "2020/12/26",
   "Project": "default"
  },
  {
   "CPU_Hours": 23.474260388959998,
   "Mem_GB_Hours": 0.006864044464529343,
   "GPU_Hours": 0,
   "Runtime": 0.9780941828733333,
   "App_Hours": 23.474260388959998,
   "JobId": "23096",
   "Queue": "q_x86_cn_sim",
   "User": "zhufq",
   "App": "Abaqus",
   "JobDescription": "Batch-Abaqus",
   "JobName": "/home/export/online3/amd_share/shangruan/bin/abaqus614 /home/export/base/nsccwuxi_amd/zhufq/WORK/EP04/ABAQUS/1226/EP40_M0_TB_Strength_LC03_1222.inp",
   "Cluster": "aip",
   "CPU_Cost": 4.6948520777919995,
   "Mem_Cost": 0,
   "GPU_Cost": 0,
   "App_Cost": 0,
   "StartDate": "2020/12/25",
   "Project": "default"
  },
  {
   "CPU_Hours": 85.38373152050664,
   "Mem_GB_Hours": 0.02500983198292504,
   "GPU_Hours": 0,
   "Runtime": 3.5576554800211113,
   "App_Hours": 85.38373152050664,
   "JobId": "22956",
   "Queue": "q_x86_vio_share",
   "User": "zhufq",
   "App": "Abaqus",
   "JobDescription": "Batch-Abaqus",
   "JobName": "/home/export/online3/amd_share/shangruan/bin/abaqus614 /home/export/base/nsccwuxi_amd/zhufq/WORK/EP04/ABAQUS/1223/EP40_M0_TB_Strength_LC02_1222.inp",
   "Cluster": "aip",
   "CPU_Cost": 17.076746304101334,
   "Mem_Cost": 0,
   "GPU_Cost": 0,
   "App_Cost": 0,
   "StartDate": "2020/12/25",
   "Project": "default"
  },
  {
   "CPU_Hours": 34.55268198591111,
   "Mem_GB_Hours": 0.008544841583173576,
   "GPU_Hours": 0,
   "Runtime": 1.079771312059722,
   "App_Hours": 34.55268198591111,
   "JobId": "23769",
   "Queue": "q_x86_vio_share",
   "User": "zhufq",
   "App": "Abaqus",
   "JobDescription": "tb-282",
   "JobName": "/home/export/online3/amd_share/shangruan/bin/abaqus614 /home/export/base/nsccwuxi_amd/zhufq/WORK/EP04/ABAQUS/1229/1228_2/EP40_M0_TB_Strength_LC01_1228.inp",
   "Cluster": "aip",
   "CPU_Cost": 6.910536397182223,
   "Mem_Cost": 0,
   "GPU_Cost": 0,
   "App_Cost": 0,
   "StartDate": "2020/12/29",
   "Project": "default"
  },
  {
   "CPU_Hours": 48.499832209733334,
   "Mem_GB_Hours": 0.01214425612150706,
   "GPU_Hours": 0,
   "Runtime": 1.5156197565541667,
   "App_Hours": 48.499832209733334,
   "JobId": "23577",
   "Queue": "q_x86_vio_share",
   "User": "zhufq",
   "App": "Abaqus",
   "JobDescription": "28",
   "JobName": "/home/export/online3/amd_share/shangruan/bin/abaqus614 /home/export/base/nsccwuxi_amd/zhufq/WORK/EP04/ABAQUS/1228/EP40_M0_TB_Strength_LC01_1222.inp",
   "Cluster": "aip",
   "CPU_Cost": 9.699966441946668,
   "Mem_Cost": 0,
   "GPU_Cost": 0,
   "App_Cost": 0,
   "StartDate": "2020/12/28",
   "Project": "default"
  },
  {
   "CPU_Hours": 54.43765495850666,
   "Mem_GB_Hours": 0.013150524790639412,
   "GPU_Hours": 0,
   "Runtime": 1.7011767174533332,
   "App_Hours": 54.43765495850666,
   "JobId": "23555",
   "Queue": "q_x86_vio_share",
   "User": "zhufq",
   "App": "Abaqus",
   "JobDescription": "Batch-Abaqus",
   "JobName": "/home/export/online3/amd_share/shangruan/bin/abaqus614 /home/export/base/nsccwuxi_amd/zhufq/WORK/EP04/ABAQUS/1227/EP40_M0_TB_Strength_LC11_1222.inp",
   "Cluster": "aip",
   "CPU_Cost": 10.887530991701334,
   "Mem_Cost": 0,
   "GPU_Cost": 0,
   "App_Cost": 0,
   "StartDate": "2020/12/28",
   "Project": "default"
  },
  {
   "CPU_Hours": 8.59356979116,
   "Mem_GB_Hours": 0.003592675278768247,
   "GPU_Hours": 0,
   "Runtime": 0.35806540796499997,
   "App_Hours": 8.59356979116,
   "JobId": "21077",
   "Queue": "q_x86_cn_sim",
   "User": "zhufq",
   "App": "Abaqus",
   "JobDescription": "gr",
   "JobName": "/home/export/online3/amd_share/shangruan/bin/abaqus614 /home/export/base/nsccwuxi_amd/zhufq/WORK/EP04/ABAQUS/GR/EP40_M1_Floor_Treading_Stiffness_LC09_V001.inp",
   "Cluster": "aip",
   "CPU_Cost": 1.7187139582320001,
   "Mem_Cost": 0,
   "GPU_Cost": 0,
   "App_Cost": 0,
   "StartDate": "2020/12/15",
   "Project": "default"
  },
  {
   "CPU_Hours": 48.21524124913333,
   "Mem_GB_Hours": 0.01421461590463598,
   "GPU_Hours": 0,
   "Runtime": 2.0089683853805558,
   "App_Hours": 48.21524124913333,
   "JobId": "21062",
   "Queue": "q_x86_vio_share",
   "User": "zhufq",
   "App": "Abaqus",
   "JobDescription": "tb",
   "JobName": "/home/export/online3/amd_share/shangruan/bin/abaqus614 /home/export/base/nsccwuxi_amd/zhufq/WORK/EP04/ABAQUS/1215_TB_STR/EP40_M1_TB_Strength_LC05_V001.inp",
   "Cluster": "aip",
   "CPU_Cost": 9.643048249826668,
   "Mem_Cost": 0,
   "GPU_Cost": 0,
   "App_Cost": 0,
   "StartDate": "2020/12/15",
   "Project": "default"
  },
  {
   "CPU_Hours": 47.842089516088876,
   "Mem_GB_Hours": 0.011275158928822665,
   "GPU_Hours": 0,
   "Runtime": 1.4950652973777774,
   "App_Hours": 47.842089516088876,
   "JobId": "23608",
   "Queue": "q_x86_vio_share",
   "User": "zhufq",
   "App": "Abaqus",
   "JobDescription": "1229_abaqus",
   "JobName": "/home/export/online3/amd_share/shangruan/bin/abaqus614 /home/export/base/nsccwuxi_amd/zhufq/WORK/EP04/ABAQUS/1229/EP40_M0_TB_Strength_LC03_1228.inp",
   "Cluster": "aip",
   "CPU_Cost": 9.568417903217778,
   "Mem_Cost": 0,
   "GPU_Cost": 0,
   "App_Cost": 0,
   "StartDate": "2020/12/28",
   "Project": "default"
  },
  {
   "CPU_Hours": 24.720809125140004,
   "Mem_GB_Hours": 0.00757891203641321,
   "GPU_Hours": 0,
   "Runtime": 1.0300337135475,
   "App_Hours": 24.720809125140004,
   "JobId": "23102",
   "Queue": "q_x86_cn_sim",
   "User": "zhufq",
   "App": "Abaqus",
   "JobDescription": "Batch-Abaqus",
   "JobName": "/home/export/online3/amd_share/shangruan/bin/abaqus614 /home/export/base/nsccwuxi_amd/zhufq/WORK/EP04/ABAQUS/1226/EP40_M0_TB_Strength_LC09_1222.inp",
   "Cluster": "aip",
   "CPU_Cost": 4.944161825028,
   "Mem_Cost": 0,
   "GPU_Cost": 0,
   "App_Cost": 0,
   "StartDate": "2020/12/26",
   "Project": "default"
  },
  {
   "CPU_Hours": 55.38872778424,
   "Mem_GB_Hours": 0.016614801382249068,
   "GPU_Hours": 0,
   "Runtime": 2.3078636576766667,
   "App_Hours": 55.38872778424,
   "JobId": "23332",
   "Queue": "q_x86_vio_share",
   "User": "zhufq",
   "App": "Abaqus",
   "JobDescription": "TB-STR6",
   "JobName": "/home/export/online3/amd_share/shangruan/bin/abaqus614 /home/export/base/nsccwuxi_amd/zhufq/WORK/EP04/ABAQUS/1226/EP40_M0_TB_Strength_LC01_1222.inp",
   "Cluster": "aip",
   "CPU_Cost": 11.077745556848,
   "Mem_Cost": 0,
   "GPU_Cost": 0,
   "App_Cost": 0,
   "StartDate": "2020/12/27",
   "Project": "default"
  },
  {
   "CPU_Hours": 67.37181685036444,
   "Mem_GB_Hours": 0.014732289625876511,
   "GPU_Hours": 0,
   "Runtime": 2.1053692765738887,
   "App_Hours": 67.37181685036444,
   "JobId": "23609",
   "Queue": "q_x86_vio_share",
   "User": "zhufq",
   "App": "Abaqus",
   "JobDescription": "1229_abaqus",
   "JobName": "/home/export/online3/amd_share/shangruan/bin/abaqus614 /home/export/base/nsccwuxi_amd/zhufq/WORK/EP04/ABAQUS/1229/EP40_M0_TB_Strength_LC04_1228.inp",
   "Cluster": "aip",
   "CPU_Cost": 13.474363370072888,
   "Mem_Cost": 0,
   "GPU_Cost": 0,
   "App_Cost": 0,
   "StartDate": "2020/12/28",
   "Project": "default"
  },
  {
   "CPU_Hours": 21.90730365119333,
   "Mem_GB_Hours": 0.007556780653847852,
   "GPU_Hours": 0,
   "Runtime": 0.9128043187997222,
   "App_Hours": 21.90730365119333,
   "JobId": "23339",
   "Queue": "q_x86_vio_share",
   "User": "zhufq",
   "App": "Abaqus",
   "JobDescription": "TB-STR2",
   "JobName": "/home/export/online3/amd_share/shangruan/bin/abaqus614 /home/export/base/nsccwuxi_amd/zhufq/WORK/EP04/ABAQUS/1226/EP40_M0_TB_Strength_LC03_1222.inp",
   "Cluster": "aip",
   "CPU_Cost": 4.381460730238667,
   "Mem_Cost": 0,
   "GPU_Cost": 0,
   "App_Cost": 0,
   "StartDate": "2020/12/27",
   "Project": "default"
  },
  {
   "CPU_Hours": 3.80017761484,
   "Mem_GB_Hours": 0.001590532467390251,
   "GPU_Hours": 0,
   "Runtime": 0.15834073395166665,
   "App_Hours": 3.80017761484,
   "JobId": "23250",
   "Queue": "q_x86_cn_sim",
   "User": "zhufq",
   "App": "Abaqus",
   "JobDescription": "Batch-Abaqus",
   "JobName": "/home/export/online3/amd_share/shangruan/bin/abaqus614 /home/export/base/nsccwuxi_amd/zhufq/WORK/EP04/ABAQUS/1226/EP40_M0_TB_Strength_LC10_1222.inp",
   "Cluster": "aip",
   "CPU_Cost": 0.760035522968,
   "Mem_Cost": 0,
   "GPU_Cost": 0,
   "App_Cost": 0,
   "StartDate": "2020/12/26",
   "Project": "default"
  },
  {
   "CPU_Hours": 48.52863125584666,
   "Mem_GB_Hours": 0.014374475586124421,
   "GPU_Hours": 0,
   "Runtime": 2.0220263023269447,
   "App_Hours": 48.52863125584666,
   "JobId": "21061",
   "Queue": "q_x86_vio_share",
   "User": "zhufq",
   "App": "Abaqus",
   "JobDescription": "tb",
   "JobName": "/home/export/online3/amd_share/shangruan/bin/abaqus614 /home/export/base/nsccwuxi_amd/zhufq/WORK/EP04/ABAQUS/1215_TB_STR/EP40_M1_TB_Strength_LC04_V001.inp",
   "Cluster": "aip",
   "CPU_Cost": 9.705726251169335,
   "Mem_Cost": 0,
   "GPU_Cost": 0,
   "App_Cost": 0,
   "StartDate": "2020/12/15",
   "Project": "default"
  },
  {
   "CPU_Hours": 4.3133333333333335,
   "Mem_GB_Hours": 0.0023837820688883465,
   "GPU_Hours": 0,
   "Runtime": 0.17972222222222223,
   "App_Hours": 4.3133333333333335,
   "JobId": "23235",
   "Queue": "q_x86_vio_share",
   "User": "zhufq",
   "App": "Abaqus",
   "JobDescription": "TB-STR5",
   "JobName": "/home/export/online3/amd_share/shangruan/bin/abaqus614 /home/export/base/nsccwuxi_amd/zhufq/WORK/EP04/ABAQUS/1226/EP40_M0_TB_Strength_LC01_1222.inp",
   "Cluster": "aip",
   "CPU_Cost": 0.8626666666666667,
   "Mem_Cost": 0,
   "GPU_Cost": 0,
   "App_Cost": 0,
   "StartDate": "2020/12/26",
   "Project": "default"
  },
  {
   "CPU_Hours": 23.98752379306667,
   "Mem_GB_Hours": 0.0069874161112338596,
   "GPU_Hours": 0,
   "Runtime": 0.9994801580444445,
   "App_Hours": 23.98752379306667,
   "JobId": "22864",
   "Queue": "q_x86_expr",
   "User": "zhufq",
   "App": "Abaqus",
   "JobDescription": "Batch-Abaqus",
   "JobName": "/home/export/online3/amd_share/shangruan/bin/abaqus614 /home/export/base/nsccwuxi_amd/zhufq/WORK/EP04/ABAQUS/1223/EP40_M0_TB_Strength_LC09_1222.inp",
   "Cluster": "aip",
   "CPU_Cost": 4.797504758613333,
   "Mem_Cost": 0,
   "GPU_Cost": 0,
   "App_Cost": 0,
   "StartDate": "2020/12/25",
   "Project": "default"
  },
  {
   "CPU_Hours": 1.7528352141177779,
   "Mem_GB_Hours": 1.298049303687047,
   "GPU_Hours": 0,
   "Runtime": 0.8764176070588889,
   "App_Hours": 1.7528352141177779,
   "JobId": "20981",
   "Queue": "q_x86_cn_sim_plus",
   "User": "zhufq",
   "App": "StarCCM1404",
   "JobDescription": "StarCCM1404",
   "JobName": "cubevnc",
   "Cluster": "aip",
   "CPU_Cost": 0.35056704282355555,
   "Mem_Cost": 0,
   "GPU_Cost": 0,
   "App_Cost": 0,
   "StartDate": "2020/12/15",
   "Project": "default"
  },
  {
   "CPU_Hours": 48.04623273708445,
   "Mem_GB_Hours": 0.01165444370223611,
   "GPU_Hours": 0,
   "Runtime": 1.5014447730338891,
   "App_Hours": 48.04623273708445,
[...]
   "Cluster": "aip",
   "CPU_Cost": 63.353990064721785,
   "Mem_Cost": 0,
   "GPU_Cost": 0,
   "App_Cost": 0,
   "StartDate": "2020/12/29",
   "Project": "default"
  },
  {
   "CPU_Hours": 569.6875603745766,
   "Mem_GB_Hours": 20.73337047531615,
   "GPU_Hours": 0,
   "Runtime": 22.787502414983056,
   "App_Hours": 569.6875603745766,
   "JobId": "22679",
   "Queue": "q_x86_cn_sim_plus",
   "User": "zhufq",
   "App": "StarCCM1404",
   "JobDescription": "StarCCM1404",
   "JobName": "cubevnc",
   "Cluster": "aip",
   "CPU_Cost": 113.93751207491522,
   "Mem_Cost": 0,
   "GPU_Cost": 0,
   "App_Cost": 0,
   "StartDate": "2020/12/23",
   "Project": "default"
  },
  {
   "CPU_Hours": 0.006666666666666666,
   "Mem_GB_Hours": 0.0000036843617757161458,
   "GPU_Hours": 0,
   "Runtime": 0.0002777777777777778,
   "App_Hours": 0.006666666666666666,
   "JobId": "23263",
   "Queue": "q_x86_vio_share",
   "User": "zhufq",
   "App": "Abaqus",
   "JobDescription": "TB-STR6",
   "JobName": "/home/export/online3/amd_share/shangruan/bin/abaqus614 /home/export/base/nsccwuxi_amd/zhufq/WORK/EP04/ABAQUS/1226/EP40_M0_TB_Strength_LC09_1222.inp",
   "Cluster": "aip",
   "CPU_Cost": 0.0013333333333333333,
   "Mem_Cost": 0,
   "GPU_Cost": 0,
   "App_Cost": 0,
   "StartDate": "2020/12/26",
   "Project": "default"
  },
  {
   "CPU_Hours": 27.341338307859996,
   "Mem_GB_Hours": 0.008769919677579402,
   "GPU_Hours": 0,
   "Runtime": 1.1392224294941666,
   "App_Hours": 27.341338307859996,
   "JobId": "23262",
   "Queue": "q_x86_vio_share",
   "User": "zhufq",
   "App": "Abaqus",
   "JobDescription": "TB-STR6",
   "JobName": "/home/export/online3/amd_share/shangruan/bin/abaqus614 /home/export/base/nsccwuxi_amd/zhufq/WORK/EP04/ABAQUS/1226/EP40_M0_TB_Strength_LC08_1222.inp",
   "Cluster": "aip",
   "CPU_Cost": 5.468267661572,
   "Mem_Cost": 0,
   "GPU_Cost": 0,
   "App_Cost": 0,
   "StartDate": "2020/12/26",
   "Project": "default"
  },
  {
   "CPU_Hours": 0.24,
   "Mem_GB_Hours": 0.00013271331787109375,
   "GPU_Hours": 0,
   "Runtime": 0.01,
   "App_Hours": 0.24,
   "JobId": "23245",
   "Queue": "q_x86_cn_sim",
   "User": "zhufq",
   "App": "Abaqus",
   "JobDescription": "Batch-Abaqus",
   "JobName": "/home/export/online3/amd_share/shangruan/bin/abaqus614 /home/export/base/nsccwuxi_amd/zhufq/WORK/EP04/ABAQUS/1226/EP40_M0_TB_Strength_LC05_1222.inp",
   "Cluster": "aip",
   "CPU_Cost": 0.048,
   "Mem_Cost": 0,
   "GPU_Cost": 0,
   "App_Cost": 0,
   "StartDate": "2020/12/26",
   "Project": "default"
  },
  {
   "CPU_Hours": 0.25333333333333335,
   "Mem_GB_Hours": 0.0001400862799750434,
   "GPU_Hours": 0,
   "Runtime": 0.010555555555555556,
   "App_Hours": 0.25333333333333335,
   "JobId": "22856",
   "Queue": "q_x86_expr",
   "User": "zhufq",
   "App": "Abaqus",
   "JobDescription": "Batch-Abaqus",
   "JobName": "/home/export/online3/amd_share/shangruan/bin/abaqus614 /home/export/base/nsccwuxi_amd/zhufq/WORK/EP04/ABAQUS/1223/EP40_M0_TB_Strength_LC01_1222.inp",
   "Cluster": "aip",
   "CPU_Cost": 0.05066666666666667,
   "Mem_Cost": 0,
   "GPU_Cost": 0,
   "App_Cost": 0,
   "StartDate": "2020/12/24",
   "Project": "default"
  },
  {
   "CPU_Hours": 41.26383598299556,
   "Mem_GB_Hours": 0.009921578163468081,
   "GPU_Hours": 0,
   "Runtime": 1.2894948744686112,
   "App_Hours": 41.26383598299556,
   "JobId": "23466",
   "Queue": "q_x86_vio_share",
   "User": "zhufq",
   "App": "Abaqus",
   "JobDescription": "Batch-Abaqus",
   "JobName": "/home/export/online3/amd_share/shangruan/bin/abaqus614 /home/export/base/nsccwuxi_amd/zhufq/WORK/EP04/ABAQUS/1227/EP40_M0_TB_Strength_LC06_1222.inp",
   "Cluster": "aip",
   "CPU_Cost": 8.252767196599113,
   "Mem_Cost": 0,
   "GPU_Cost": 0,
   "App_Cost": 0,
   "StartDate": "2020/12/28",
   "Project": "default"
  },
  {
   "CPU_Hours": 3.82017761484,
   "Mem_GB_Hours": 0.0016015738684668583,
   "GPU_Hours": 0,
   "Runtime": 0.159174067285,
   "App_Hours": 3.82017761484,
   "JobId": "23249",
   "Queue": "q_x86_cn_sim",
   "User": "zhufq",
   "App": "Abaqus",
   "JobDescription": "Batch-Abaqus",
   "JobName": "/home/export/online3/amd_share/shangruan/bin/abaqus614 /home/export/base/nsccwuxi_amd/zhufq/WORK/EP04/ABAQUS/1226/EP40_M0_TB_Strength_LC09_1222.inp",
   "Cluster": "aip",
   "CPU_Cost": 0.764035522968,
   "Mem_Cost": 0,
   "GPU_Cost": 0,
   "App_Cost": 0,
   "StartDate": "2020/12/26",
   "Project": "default"
  },
  {
   "CPU_Hours": 23.974211873199998,
   "Mem_GB_Hours": 0.006981889965706317,
   "GPU_Hours": 0,
   "Runtime": 0.9989254947166667,
   "App_Hours": 23.974211873199998,
   "JobId": "22868",
   "Queue": "q_x86_expr",
   "User": "zhufq",
   "App": "Abaqus",
   "JobDescription": "Batch-Abaqus",
   "JobName": "/home/export/online3/amd_share/shangruan/bin/abaqus614 /home/export/base/nsccwuxi_amd/zhufq/WORK/EP04/ABAQUS/1223/EP40_M0_TB_Strength_LC01_1222.inp",
   "Cluster": "aip",
   "CPU_Cost": 4.79484237464,
   "Mem_Cost": 0,
   "GPU_Cost": 0,
   "App_Cost": 0,
   "StartDate": "2020/12/25",
   "Project": "default"
  },
  {
   "CPU_Hours": 52.24916287652667,
   "Mem_GB_Hours": 0.01558210646739329,
   "GPU_Hours": 0,
   "Runtime": 2.177048453188611,
   "App_Hours": 52.24916287652667,
   "JobId": "23257",
   "Queue": "q_x86_vio_share",
   "User": "zhufq",
   "App": "Abaqus",
   "JobDescription": "TB-STR6",
   "JobName": "/home/export/online3/amd_share/shangruan/bin/abaqus614 /home/export/base/nsccwuxi_amd/zhufq/WORK/EP04/ABAQUS/1226/EP40_M0_TB_Strength_LC03_1222.inp",
   "Cluster": "aip",
   "CPU_Cost": 10.449832575305335,
   "Mem_Cost": 0,
   "GPU_Cost": 0,
   "App_Cost": 0,
   "StartDate": "2020/12/26",
   "Project": "default"
  },
  {
   "CPU_Hours": 9.447124934393335,
   "Mem_GB_Hours": 0.0032014895420821436,
   "GPU_Hours": 0,
   "Runtime": 0.3936302055997222,
   "App_Hours": 9.447124934393335,
   "JobId": "21074",
   "Queue": "q_x86_cn_sim",
   "User": "zhufq",
   "App": "Abaqus",
   "JobDescription": "gr",
   "JobName": "/home/export/online3/amd_share/shangruan/bin/abaqus614 /home/export/base/nsccwuxi_amd/zhufq/WORK/EP04/ABAQUS/GR/EP40_M1_Floor_Treading_Stiffness_LC06_V001.inp",
   "Cluster": "aip",
   "CPU_Cost": 1.8894249868786668,
   "Mem_Cost": 0,
   "GPU_Cost": 0,
   "App_Cost": 0,
   "StartDate": "2020/12/15",
   "Project": "default"
  },
  {
   "CPU_Hours": 0.008888888888888889,
   "Mem_GB_Hours": 0.0000036843617757161458,
   "GPU_Hours": 0,
   "Runtime": 0.0002777777777777778,
   "App_Hours": 0.008888888888888889,
   "JobId": "23081",
   "Queue": "q_x86_vio_share",
   "User": "zhufq",
   "App": "Abaqus",
   "JobDescription": "Batch-Abaqus",
   "JobName": "/home/export/online3/amd_share/shangruan/bin/abaqus614 /home/export/base/nsccwuxi_amd/zhufq/WORK/EP04/ABAQUS/1225/EP40_M0_TB_Strength_LC08_1222.inp",
   "Cluster": "aip",
   "CPU_Cost": 0.0017777777777777779,
   "Mem_Cost": 0,
   "GPU_Cost": 0,
   "App_Cost": 0,
   "StartDate": "2020/12/25",
   "Project": "default"
  },
  {
   "CPU_Hours": 1.1333333333333333,
   "Mem_GB_Hours": 0.0006265216403537326,
   "GPU_Hours": 0,
   "Runtime": 0.04722222222222222,
   "App_Hours": 1.1333333333333333,
   "JobId": "22936",
   "Queue": "q_x86_vio_share",
   "User": "zhufq",
   "App": "Abaqus",
   "JobDescription": "STR-3",
   "JobName": "/home/export/online3/amd_share/shangruan/bin/abaqus614 /home/export/base/nsccwuxi_amd/zhufq/WORK/EP04/ABAQUS/1223/EP40_M0_TB_Strength_LC06_1222.inp",
   "Cluster": "aip",
   "CPU_Cost": 0.22666666666666668,
   "Mem_Cost": 0,
   "GPU_Cost": 0,
   "App_Cost": 0,
   "StartDate": "2020/12/25",
   "Project": "default"
  },
  {
   "CPU_Hours": 3.6466666666666665,
   "Mem_GB_Hours": 0.0020153458913167318,
   "GPU_Hours": 0,
   "Runtime": 0.15194444444444444,
   "App_Hours": 3.6466666666666665,
   "JobId": "23251",
   "Queue": "q_x86_cn_sim",
   "User": "zhufq",
   "App": "Abaqus",
   "JobDescription": "Batch-Abaqus",
   "JobName": "/home/export/online3/amd_share/shangruan/bin/abaqus614 /home/export/base/nsccwuxi_amd/zhufq/WORK/EP04/ABAQUS/1226/EP40_M0_TB_Strength_LC11_1222.inp",
   "Cluster": "aip",
   "CPU_Cost": 0.7293333333333334,
   "Mem_Cost": 0,
   "GPU_Cost": 0,
   "App_Cost": 0,
   "StartDate": "2020/12/26",
   "Project": "default"
  },
  {
   "CPU_Hours": 30.67436709213333,
   "Mem_GB_Hours": 0.010145387804810543,
   "GPU_Hours": 0,
   "Runtime": 1.2780986288388887,
   "App_Hours": 30.67436709213333,
   "JobId": "21067",
   "Queue": "q_x86_vio_share",
   "User": "zhufq",
   "App": "Abaqus",
   "JobDescription": "tb",
   "JobName": "/home/export/online3/amd_share/shangruan/bin/abaqus614 /home/export/base/nsccwuxi_amd/zhufq/WORK/EP04/ABAQUS/1215_TB_STR/EP40_M1_TB_Strength_LC10_V001.inp",
   "Cluster": "aip",
   "CPU_Cost": 6.134873418426667,
   "Mem_Cost": 0,
   "GPU_Cost": 0,
   "App_Cost": 0,
   "StartDate": "2020/12/16",
   "Project": "default"
  },
  {
   "CPU_Hours": 0.18666666666666665,
   "Mem_GB_Hours": 0.00010322146945529513,
   "GPU_Hours": 0,
   "Runtime": 0.0077777777777777776,
   "App_Hours": 0.18666666666666665,
   "JobId": "23198",
   "Queue": "q_x86_vio_share",
   "User": "zhufq",
   "App": "Abaqus",
   "JobDescription": "REAR_OPTI",
   "JobName": "/home/export/online3/amd_share/shangruan/bin/abaqus614 /home/export/base/nsccwuxi_amd/zhufq/WORK/EP04/ABAQUS/zhongzhuan/rear_opti.inp",
   "Cluster": "aip",
   "CPU_Cost": 0.03733333333333333,
   "Mem_Cost": 0,
   "GPU_Cost": 0,
   "App_Cost": 0,
   "StartDate": "2020/12/26",
   "Project": "default"
  },
  {
   "CPU_Hours": 6.18021482796,
   "Mem_GB_Hours": 0.0021413282880005644,
   "GPU_Hours": 0,
   "Runtime": 0.257508951165,
   "App_Hours": 6.18021482796,
   "JobId": "22934",
   "Queue": "q_x86_vio_share",
   "User": "zhufq",
   "App": "Abaqus",
   "JobDescription": "STR-3",
   "JobName": "/home/export/online3/amd_share/shangruan/bin/abaqus614 /home/export/base/nsccwuxi_amd/zhufq/WORK/EP04/ABAQUS/1223/EP40_M0_TB_Strength_LC04_1222.inp",
   "Cluster": "aip",
   "CPU_Cost": 1.236042965592,
   "Mem_Cost": 0,
   "GPU_Cost": 0,
   "App_Cost": 0,
   "StartDate": "2020/12/25",
   "Project": "default"
  },
  {
   "CPU_Hours": 4.840214827960001,
   "Mem_GB_Hours": 0.0014105997488772352,
   "GPU_Hours": 0,
   "Runtime": 0.20167561783166668,
   "App_Hours": 4.840214827960001,
   "JobId": "22932",
   "Queue": "q_x86_vio_share",
   "User": "zhufq",
   "App": "Abaqus",
   "JobDescription": "STR-3",
   "JobName": "/home/export/online3/amd_share/shangruan/bin/abaqus614 /home/export/base/nsccwuxi_amd/zhufq/WORK/EP04/ABAQUS/1223/EP40_M0_TB_Strength_LC02_1222.inp",
   "Cluster": "aip",
   "CPU_Cost": 0.9680429655920001,
   "Mem_Cost": 0,
   "GPU_Cost": 0,
   "App_Cost": 0,
   "StartDate": "2020/12/25",
   "Project": "default"
  },
  {
   "CPU_Hours": 12.440372993786667,
   "Mem_GB_Hours": 0.003645752788191626,
   "GPU_Hours": 0,
   "Runtime": 0.5183488747411111,
   "App_Hours": 12.440372993786667,
   "JobId": "19046",
   "Queue": "q_x86_expr",
   "User": "zhufq",
   "App": "LS-DYNA",
   "JobDescription": "111",
   "JobName": "/home/export/online3/amd_share/shangruan/bin/dynayaml /home/export/base/nsccwuxi_amd/zhufq/WORK/EP40-temperture/111/Master.k single",
   "Cluster": "aip",
   "CPU_Cost": 2.4880745987573336,
   "Mem_Cost": 0,
   "GPU_Cost": 0,
   "App_Cost": 0,
   "StartDate": "2020/12/01",
   "Project": "default"
  },
  {
   "CPU_Hours": 0.008888888888888889,
   "Mem_GB_Hours": 0.000003688600328233507,
   "GPU_Hours": 0,
   "Runtime": 0.0002777777777777778,
   "App_Hours": 0.008888888888888889,
   "JobId": "24079",
   "Queue": "q_x86_vio_share",
   "User": "zhufq",
   "App": "Abaqus",
   "JobDescription": "tb1230",
   "JobName": "/home/export/online3/amd_share/shangruan/bin/abaqus614 /home/export/base/nsccwuxi_amd/zhufq/WORK/EP04/ABAQUS/1229/1228_3/EP40_M0_TB_Strength_LC11_1228.inp",
   "Cluster": "aip",
   "CPU_Cost": 0.0017777777777777779,
   "Mem_Cost": 0,
   "GPU_Cost": 0,
   "App_Cost": 0,
   "StartDate": "2020/12/30",
   "Project": "default"
  },
  {
   "CPU_Hours": 0.023333333333333334,
   "Mem_GB_Hours": 0.0013373692830403647,
   "GPU_Hours": 0,
   "Runtime": 0.011666666666666667,
   "App_Hours": 0.023333333333333334,
   "JobId": "21951",
   "Queue": "q_x86_cn_sim_plus",
   "User": "zhufq",
   "App": "StarCCM1404",
   "JobDescription": "StarCCM1404",
   "JobName": "cubevnc",
   "Cluster": "aip",
   "CPU_Cost": 0.004666666666666667,
   "Mem_Cost": 0,
   "GPU_Cost": 0,
   "App_Cost": 0,
   "StartDate": "2020/12/19",
   "Project": "default"
  },
  {
   "CPU_Hours": 55.34902177147333,
   "Mem_GB_Hours": 0.016213718368397932,
   "GPU_Hours": 0,
   "Runtime": 2.3062092404780556,
   "App_Hours": 55.34902177147333,
   "JobId": "21060",
   "Queue": "q_x86_vio_share",
   "User": "zhufq",
   "App": "Abaqus",
   "JobDescription": "tb",
   "JobName": "/home/export/online3/amd_share/shangruan/bin/abaqus614 /home/export/base/nsccwuxi_amd/zhufq/WORK/EP04/ABAQUS/1215_TB_STR/EP40_M1_TB_Strength_LC03_V001.inp",
   "Cluster": "aip",
   "CPU_Cost": 11.069804354294666,
   "Mem_Cost": 0,
   "GPU_Cost": 0,
   "App_Cost": 0,
   "StartDate": "2020/12/15",
   "Project": "default"
  },
  {
   "CPU_Hours": 0.006666666666666666,
   "Mem_GB_Hours": 0.0000036833021375868053,
   "GPU_Hours": 0,
   "Runtime": 0.0002777777777777778,
   "App_Hours": 0.006666666666666666,
   "JobId": "23321",
   "Queue": "q_x86_vio_share",
   "User": "zhufq",
   "App": "Abaqus",
   "JobDescription": "TB-STR7",
   "JobName": "/home/export/online3/amd_share/shangruan/bin/abaqus614 /home/export/base/nsccwuxi_amd/zhufq/WORK/EP04/ABAQUS/1226/EP40_M0_TB_Strength_LC06_1222.inp",
   "Cluster": "aip",
   "CPU_Cost": 0.0013333333333333333,
   "Mem_Cost": 0,
   "GPU_Cost": 0,
   "App_Cost": 0,
   "StartDate": "2020/12/27",
   "Project": "default"
  },
  {
   "CPU_Hours": 0.006666666666666666,
   "Mem_GB_Hours": 0.0000036854214138454862,
   "GPU_Hours": 0,
   "Runtime": 0.0002777777777777778,
   "App_Hours": 0.006666666666666666,
   "JobId": "22673",
   "Queue": "q_x86_vio_share",
   "User": "zhufq",
   "App": "Abaqus",
   "JobDescription": "TB-STR2",
   "JobName": "/home/export/online3/amd_share/shangruan/bin/abaqus614 /home/export/base/nsccwuxi_amd/zhufq/WORK/EP04/ABAQUS/1223/EP40_M0_TB_Strength_LC11_1222.inp",
   "Cluster": "aip",
   "CPU_Cost": 0.0013333333333333333,
   "Mem_Cost": 0,
   "GPU_Cost": 0,
   "App_Cost": 0,
   "StartDate": "2020/12/23",
   "Project": "default"
  },
  {
   "CPU_Hours": 21.954277042753333,
   "Mem_GB_Hours": 0.007275919435539023,
   "GPU_Hours": 0,
   "Runtime": 0.9147615434480554,
   "App_Hours": 21.954277042753333,
   "JobId": "23316",
   "Queue": "q_x86_vio_share",
   "User": "zhufq",
   "App": "Abaqus",
   "JobDescription": "TB-STR7",
   "JobName": "/home/export/online3/amd_share/shangruan/bin/abaqus614 /home/export/base/nsccwuxi_amd/zhufq/WORK/EP04/ABAQUS/1226/EP40_M0_TB_Strength_LC01_1222.inp",
   "Cluster": "aip",
   "CPU_Cost": 4.390855408550666,
   "Mem_Cost": 0,
   "GPU_Cost": 0,
   "App_Cost": 0,
   "StartDate": "2020/12/27",
   "Project": "default"
  },
  {
   "CPU_Hours": 21.060577971873332,
   "Mem_GB_Hours": 0.006963176176164063,
   "GPU_Hours": 0,
   "Runtime": 0.8775240821613889,
   "App_Hours": 21.060577971873332,
   "JobId": "23100",
   "Queue": "q_x86_cn_sim",
   "User": "zhufq",
   "App": "Abaqus",
   "JobDescription": "Batch-Abaqus",
   "JobName": "/home/export/online3/amd_share/shangruan/bin/abaqus614 /home/export/base/nsccwuxi_amd/zhufq/WORK/EP04/ABAQUS/1226/EP40_M0_TB_Strength_LC07_1222.inp",
   "Cluster": "aip",
   "CPU_Cost": 4.212115594374667,
   "Mem_Cost": 0,
   "GPU_Cost": 0,
   "App_Cost": 0,
   "StartDate": "2020/12/26",
   "Project": "default"
  },
  {
   "CPU_Hours": 30.50117504841333,
   "Mem_GB_Hours": 0.009345139981152705,
   "GPU_Hours": 0,
   "Runtime": 1.2708822936838888,
   "App_Hours": 30.50117504841333,
   "JobId": "22656",
   "Queue": "q_x86_vio_share",
   "User": "zhufq",
   "App": "Abaqus",
   "JobDescription": "TB-STR2",
   "JobName": "/home/export/online3/amd_share/shangruan/bin/abaqus614 /home/export/base/nsccwuxi_amd/zhufq/WORK/EP04/ABAQUS/1223/EP40_M0_TB_Strength_LC01_1222.inp",
   "Cluster": "aip",
   "CPU_Cost": 6.100235009682667,
   "Mem_Cost": 0,
   "GPU_Cost": 0,
   "App_Cost": 0,
   "StartDate": "2020/12/23",
   "Project": "default"
  },
  {
   "CPU_Hours": 3.9866666666666664,
   "Mem_GB_Hours": 0.002204515669080946,
   "GPU_Hours": 0,
   "Runtime": 0.1661111111111111,
   "App_Hours": 3.9866666666666664,
   "JobId": "23241",
   "Queue": "q_x86_cn_sim",
   "User": "zhufq",
   "App": "Abaqus",
   "JobDescription": "Batch-Abaqus",
   "JobName": "/home/export/online3/amd_share/shangruan/bin/abaqus614 /home/export/base/nsccwuxi_amd/zhufq/WORK/EP04/ABAQUS/1226/EP40_M0_TB_Strength_LC05_1222.inp",
   "Cluster": "aip",
   "CPU_Cost": 0.7973333333333333,
   "Mem_Cost": 0,
   "GPU_Cost": 0,
   "App_Cost": 0,
   "StartDate": "2020/12/26",
   "Project": "default"
  },
  {
   "CPU_Hours": 0.006666666666666666,
   "Mem_GB_Hours": 0.0000036833021375868053,
   "GPU_Hours": 0,
   "Runtime": 0.0002777777777777778,
   "App_Hours": 0.006666666666666666,
   "JobId": "22670",
   "Queue": "q_x86_vio_share",
   "User": "zhufq",
   "App": "Abaqus",
   "JobDescription": "TB-STR2",
   "JobName": "/home/export/online3/amd_share/shangruan/bin/abaqus614 /home/export/base/nsccwuxi_amd/zhufq/WORK/EP04/ABAQUS/1223/EP40_M0_TB_Strength_LC07_1222.inp",
   "Cluster": "aip",
   "CPU_Cost": 0.0013333333333333333,
   "Mem_Cost": 0,
   "GPU_Cost": 0,
   "App_Cost": 0,
   "StartDate": "2020/12/23",
   "Project": "default"
  },
  {
   "CPU_Hours": 20.53311192612833,
   "Mem_GB_Hours": 2.5869811716822992,
   "GPU_Hours": 0,
   "Runtime": 1.2078301133016665,
   "App_Hours": 20.53311192612833,
   "JobId": "23395",
   "Queue": "q_x86_cn_sim_plus",
   "User": "zhufq",
   "App": "StarCCM1404",
   "JobDescription": "StarCCM1404",
   "JobName": "cubevnc",
   "Cluster": "aip",
   "CPU_Cost": 4.106622385225666,
   "Mem_Cost": 0,
   "GPU_Cost": 0,
   "App_Cost": 0,
   "StartDate": "2020/12/27",
   "Project": "default"
  },
  {
   "CPU_Hours": 1.2333333333333334,
   "Mem_GB_Hours": 0.000681410895453559,
   "GPU_Hours": 0,
   "Runtime": 0.05138888888888889,
   "App_Hours": 1.2333333333333334,
   "JobId": "22937",
   "Queue": "q_x86_vio_share",
   "User": "zhufq",
   "App": "Abaqus",
   "JobDescription": "STR-3",
   "JobName": "/home/export/online3/amd_share/shangruan/bin/abaqus614 /home/export/base/nsccwuxi_amd/zhufq/WORK/EP04/ABAQUS/1223/EP40_M0_TB_Strength_LC07_1222.inp",
   "Cluster": "aip",
   "CPU_Cost": 0.2466666666666667,
   "Mem_Cost": 0,
   "GPU_Cost": 0,
   "App_Cost": 0,
   "StartDate": "2020/12/25",
   "Project": "default"
  },
  {
   "CPU_Hours": 44.15333020228444,
   "Mem_GB_Hours": 0.010329457500291472,
   "GPU_Hours": 0,
   "Runtime": 1.3797915688213886,
   "App_Hours": 44.15333020228444,
   "JobId": "24072",
   "Queue": "q_x86_vio_share",
   "User": "zhufq",
   "App": "Abaqus",
   "JobDescription": "tb1230",
   "JobName": "/home/export/online3/amd_share/shangruan/bin/abaqus614 /home/export/base/nsccwuxi_amd/zhufq/WORK/EP04/ABAQUS/1229/1228_3/EP40_M0_TB_Strength_LC04_1228.inp",
   "Cluster": "aip",
   "CPU_Cost": 8.830666040456888,
   "Mem_Cost": 0,
   "GPU_Cost": 0,
   "App_Cost": 0,
   "StartDate": "2020/12/30",
   "Project": "default"
  },
  {
   "CPU_Hours": 0.006666666666666666,
   "Mem_GB_Hours": 0.0000036833021375868053,
   "GPU_Hours": 0,
   "Runtime": 0.0002777777777777778,
   "App_Hours": 0.006666666666666666,
   "JobId": "23320",
   "Queue": "q_x86_vio_share",
   "User": "zhufq",
   "App": "Abaqus",
   "JobDescription": "TB-STR7",
   "JobName": "/home/export/online3/amd_share/shangruan/bin/abaqus614 /home/export/base/nsccwuxi_amd/zhufq/WORK/EP04/ABAQUS/1226/EP40_M0_TB_Strength_LC05_1222.inp",
   "Cluster": "aip",
   "CPU_Cost": 0.0013333333333333333,
   "Mem_Cost": 0,
   "GPU_Cost": 0,
   "App_Cost": 0,
   "StartDate": "2020/12/27",
   "Project": "default"
  }
 ]
}