{
 "User": "simforge1",
 "Queues": "all",
 "Clusters": [
  "aip"
 ],
 "Month": "2021-01",
 "CPU_Hours": 1691.1599304072859,
 "Mem_GB_Hours": 0.9671919894967146,
 "GPU_Hours": 0.9758487847408334,
 "App_Cost": 8453.102410177347,
 "CPU_Cost": 845.5799652036429,
 "Mem_Cost": 0,
 "GPU_Cost": 0.4879243923704167,
 "Total_Cost": 10491.72967865461,
 "App_Hours": {
  "Abaqus": {
   "Hours": 7.702050225400278,
   "Cost": 38.51025112700139
  },
  "Abaqus614": {
   "Hours": 0.3694483718161111,
   "Cost": 0
  },
  "Hypermesh": {
   "Hours": 0.021111111111111112,
   "Cost": 0.10555555555555556
  },
  "LS-DYNA": {
   "Hours": 1682.8973206989583,
   "Cost": 8414.48660349479
  },
  "LSPrePost": {
   "Hours": 0.16999999999999998,
   "Cost": 0
  }
 },
 "Details": [
  {
   "CPU_Hours": 77.65333333333334,
   "Mem_GB_Hours": 0.019078674316406252,
   "GPU_Hours": 0,
   "Runtime": 1.2133333333333334,
   "App_Hours": 77.65333333333334,
   "JobId": "25577",
   "Queue": "q_x86_cn_sim",
   "User": "simforge1",
   "App": "LS-DYNA",
   "JobDescription": "Batch-LS-DYNA",
   "JobName": "/home/export/online3/amd_share/shangruan/bin/dynayaml /home/export/base/nsccwuxi_amd/simforge1/WORK/JOB-OK/test_21.k single",
   "Cluster": "aip",
   "CPU_Cost": 38.82666666666667,
   "Mem_Cost": 0,
   "GPU_Cost": 0,
   "App_Cost": 388.26666666666665,
   "StartDate": "2021/01/06",
   "Project": "default"
  },
  {
   "CPU_Hours": 0.155,
   "Mem_GB_Hours": 0.07960081100463867,
   "GPU_Hours": 0.155,
   "Runtime": 0.155,
   "App_Hours": 0.155,
   "JobId": "26047",
   "Queue": "local",
   "User": "simforge1",
   "App": "LSPrePost",
   "JobDescription": "LSPrePost",
   "JobName": "cubevnc",
   "Cluster": "aip",
   "CPU_Cost": 0.0775,
   "Mem_Cost": 0,
   "GPU_Cost": 0.0775,
   "App_Cost": 0,
   "StartDate": "2021/01/08",
   "Project": "default"
  },
  {
   "CPU_Hours": 22.604945895475556,
   "Mem_GB_Hours": 0.006882109927587259,
   "GPU_Hours": 0,
   "Runtime": 0.7064045592336111,
   "App_Hours": 22.604945895475556,
   "JobId": "25803",
   "Queue": "q_x86_cn_sim",
   "User": "simforge1",
   "App": "LS-DYNA",
   "JobDescription": "Batch-LS-DYNA",
   "JobName": "/home/export/online3/amd_share/shangruan/bin/dynayaml /home/export/base/nsccwuxi_amd/simforge1/WORK/JOB-OK/test_29.k single",
   "Cluster": "aip",
   "CPU_Cost": 11.302472947737778,
   "Mem_Cost": 0,
   "GPU_Cost": 0,
   "App_Cost": 113.02472947737778,
   "StartDate": "2021/01/07",
   "Project": "default"
  },
  {
   "CPU_Hours": 17.476129162533333,
   "Mem_GB_Hours": 0.005733243091481797,
   "GPU_Hours": 0,
   "Runtime": 0.5461290363291667,
   "App_Hours": 17.476129162533333,
   "JobId": "25285",
   "Queue": "q_x86_cn_sim",
   "User": "simforge1",
   "App": "LS-DYNA",
   "JobDescription": "Batch-LS-DYNA",
   "JobName": "/home/export/online3/amd_share/shangruan/bin/dynayaml /home/export/base/nsccwuxi_amd/simforge1/WORK/JOB-OK/test_16.k single",
   "Cluster": "aip",
   "CPU_Cost": 8.738064581266666,
   "Mem_Cost": 0,
   "GPU_Cost": 0,
   "App_Cost": 87.38064581266667,
   "StartDate": "2021/01/05",
   "Project": "default"
  },
  {
   "CPU_Hours": 7.286760923586667,
   "Mem_GB_Hours": 0.0034011807391351742,
   "GPU_Hours": 0,
   "Runtime": 0.30361503848277777,
   "App_Hours": 7.286760923586667,
   "JobId": "24674",
   "Queue": "q_x86_cn_sim",
   "User": "simforge1",
   "App": "Abaqus",
   "JobDescription": "Batch-Abaqus",
   "JobName": "/home/export/online3/amd_share/shangruan/bin/abaqus614 /home/export/base/nsccwuxi_amd/simforge1/WORK/JOB-OK/Job-10.inp",
   "Cluster": "aip",
   "CPU_Cost": 3.6433804617933334,
   "Mem_Cost": 0,
   "GPU_Cost": 0,
   "App_Cost": 36.43380461793333,
   "StartDate": "2021/01/03",
   "Project": "default"
  },
  {
   "CPU_Hours": 0.4088888888888889,
   "Mem_GB_Hours": 0.00007867177327473959,
   "GPU_Hours": 0,
   "Runtime": 0.006388888888888889,
   "App_Hours": 0.4088888888888889,
   "JobId": "26235",
   "Queue": "q_x86_cn_sim",
   "User": "simforge1",
   "App": "LS-DYNA",
   "JobDescription": "Batch-LS-DYNA",
   "JobName": "/home/export/online3/amd_share/shangruan/bin/dynayaml /home/export/base/nsccwuxi_amd/simforge1/WORK/JOB-OK/foam_0110_5_mm_add.k single",
   "Cluster": "aip",
   "CPU_Cost": 0.20444444444444446,
   "Mem_Cost": 0,
   "GPU_Cost": 0,
   "App_Cost": 2.0444444444444447,
   "StartDate": "2021/01/10",
   "Project": "default"
  },
  {
   "CPU_Hours": 46.36580069137778,
   "Mem_GB_Hours": 0.0055077977529005475,
   "GPU_Hours": 0,
   "Runtime": 0.7244656358027778,
   "App_Hours": 46.36580069137778,
   "JobId": "26236",
   "Queue": "q_x86_cn_sim",
   "User": "simforge1",
   "App": "LS-DYNA",
   "JobDescription": "Batch-LS-DYNA",
   "JobName": "/home/export/online3/amd_share/shangruan/bin/dynayaml /home/export/base/nsccwuxi_amd/simforge1/WORK/JOB-OK/foam_0110_5_mm_add.k single",
   "Cluster": "aip",
   "CPU_Cost": 23.18290034568889,
   "Mem_Cost": 0,
   "GPU_Cost": 0,
   "App_Cost": 231.8290034568889,
   "StartDate": "2021/01/10",
   "Project": "default"
  },
  {
   "CPU_Hours": 38.18745425706666,
   "Mem_GB_Hours": 0.0060487229946428935,
   "GPU_Hours": 0,
   "Runtime": 0.5966789727666666,
   "App_Hours": 38.18745425706666,
   "JobId": "25598",
   "Queue": "q_x86_cn_sim",
   "User": "simforge1",
   "App": "LS-DYNA",
   "JobDescription": "Batch-LS-DYNA",
   "JobName": "/home/export/online3/amd_share/shangruan/bin/dynayaml /home/export/base/nsccwuxi_amd/simforge1/WORK/JOB-OK/TEST_22.k single",
   "Cluster": "aip",
   "CPU_Cost": 19.09372712853333,
   "Mem_Cost": 0,
   "GPU_Cost": 0,
   "App_Cost": 190.93727128533334,
   "StartDate": "2021/01/06",
   "Project": "default"
  },
  {
   "CPU_Hours": 26.72089045720889,
   "Mem_GB_Hours": 0.0035780289542420877,
   "GPU_Hours": 0,
   "Runtime": 0.4175139133938889,
   "App_Hours": 26.72089045720889,
   "JobId": "26144",
   "Queue": "q_x86_cn_sim",
   "User": "simforge1",
   "App": "LS-DYNA",
   "JobDescription": "Batch-LS-DYNA",
   "JobName": "/home/export/online3/amd_share/shangruan/bin/dynayaml /home/export/base/nsccwuxi_amd/simforge1/WORK/JOB-OK/form_3.k single",
   "Cluster": "aip",
   "CPU_Cost": 13.360445228604444,
   "Mem_Cost": 0,
   "GPU_Cost": 0,
   "App_Cost": 133.60445228604445,
   "StartDate": "2021/01/09",
   "Project": "default"
  },
  {
   "CPU_Hours": 0.021111111111111112,
   "Mem_GB_Hours": 0.027040477328830297,
   "GPU_Hours": 0.021111111111111112,
   "Runtime": 0.021111111111111112,
   "App_Hours": 0.021111111111111112,
   "JobId": "27185",
   "Queue": "local",
   "User": "simforge1",
   "App": "Hypermesh",
   "JobDescription": "Hypermesh",
   "JobName": "cubevnc",
   "Cluster": "aip",
   "CPU_Cost": 0.010555555555555556,
   "Mem_Cost": 0,
   "GPU_Cost": 0.010555555555555556,
   "App_Cost": 0.10555555555555556,
   "StartDate": "2021/01/17",
   "Project": "default"
  },
  {
   "CPU_Hours": 45.37023855309333,
   "Mem_GB_Hours": 0.010547751806935863,
   "GPU_Hours": 0,
   "Runtime": 1.4178199547841666,
   "App_Hours": 45.37023855309333,
   "JobId": "25953",
   "Queue": "q_x86_cn_sim",
   "User": "simforge1",
   "App": "LS-DYNA",
   "JobDescription": "Batch-LS-DYNA",
   "JobName": "/home/export/online3/amd_share/shangruan/bin/dynayaml /home/export/base/nsccwuxi_amd/simforge1/WORK/JOB-OK/test_4_elem1mm.k single",
   "Cluster": "aip",
   "CPU_Cost": 22.685119276546665,
   "Mem_Cost": 0,
   "GPU_Cost": 0,
   "App_Cost": 226.85119276546666,
   "StartDate": "2021/01/08",
   "Project": "default"
  },
  {
   "CPU_Hours": 25.102833933742225,
   "Mem_GB_Hours": 0.006892475634718405,
   "GPU_Hours": 0,
   "Runtime": 0.7844635604294445,
   "App_Hours": 25.102833933742225,
   "JobId": "25679",
   "Queue": "q_x86_cn_sim",
   "User": "simforge1",
   "App": "LS-DYNA",
   "JobDescription": "Batch-LS-DYNA",
   "JobName": "/home/export/online3/amd_share/shangruan/bin/dynayaml /home/export/base/nsccwuxi_amd/simforge1/WORK/JOB-OK/test_25.k single",
   "Cluster": "aip",
   "CPU_Cost": 12.551416966871113,
   "Mem_Cost": 0,
   "GPU_Cost": 0,
   "App_Cost": 125.5141696687111,
   "StartDate": "2021/01/06",
   "Project": "default"
  },
  {
   "CPU_Hours": 27.25386323368889,
   "Mem_GB_Hours": 0.003930824110137765,
   "GPU_Hours": 0,
   "Runtime": 0.4258416130263889,
   "App_Hours": 27.25386323368889,
   "JobId": "26228",
   "Queue": "q_x86_cn_sim",
   "User": "simforge1",
   "App": "LS-DYNA",
   "JobDescription": "Batch-LS-DYNA",
   "JobName": "/home/export/online3/amd_share/shangruan/bin/dynayaml /home/export/base/nsccwuxi_amd/simforge1/WORK/JOB-OK/foam_0110_5mm.k single",
   "Cluster": "aip",
   "CPU_Cost": 13.626931616844445,
   "Mem_Cost": 0,
   "GPU_Cost": 0,
   "App_Cost": 136.26931616844445,
   "StartDate": "2021/01/10",
   "Project": "default"
  },
  {
   "CPU_Hours": 0.015,
   "Mem_GB_Hours": 0.005351772308349609,
   "GPU_Hours": 0.015,
   "Runtime": 0.015,
   "App_Hours": 0.015,
   "JobId": "27186",
   "Queue": "local",
   "User": "simforge1",
   "App": "LSPrePost",
   "JobDescription": "LSPrePost",
   "JobName": "cubevnc",
   "Cluster": "aip",
   "CPU_Cost": 0.0075,
   "Mem_Cost": 0,
   "GPU_Cost": 0.0075,
   "App_Cost": 0,
   "StartDate": "2021/01/17",
   "Project": "default"
  },
  {
   "CPU_Hours": 105.92270668866666,
   "Mem_GB_Hours": 0.01558771391231378,
   "GPU_Hours": 0,
   "Runtime": 2.206723056013889,
   "App_Hours": 105.92270668866666,
   "JobId": "26246",
   "Queue": "q_x86_cn_sim",
   "User": "simforge1",
   "App": "LS-DYNA",
   "JobDescription": "Batch-LS-DYNA",
   "JobName": "/home/export/online3/amd_share/shangruan/bin/dynayaml /home/export/base/nsccwuxi_amd/simforge1/WORK/JOB-OK/foam_0110_5_mm_add.k single",
   "Cluster": "aip",
   "CPU_Cost": 52.96135334433333,
   "Mem_Cost": 0,
   "GPU_Cost": 0,
   "App_Cost": 529.6135334433334,
   "StartDate": "2021/01/10",
   "Project": "default"
  },
  {
   "CPU_Hours": 22.871538972053333,
   "Mem_GB_Hours": 0.007101225147648095,
   "GPU_Hours": 0,
   "Runtime": 0.7147355928766667,
   "App_Hours": 22.871538972053333,
   "JobId": "25816",
   "Queue": "q_x86_cn_sim",
   "User": "simforge1",
   "App": "LS-DYNA",
   "JobDescription": "Batch-LS-DYNA",
   "JobName": "/home/export/online3/amd_share/shangruan/bin/dynayaml /home/export/base/nsccwuxi_amd/simforge1/WORK/JOB-OK/TEST_30.k single",
   "Cluster": "aip",
   "CPU_Cost": 11.435769486026667,
   "Mem_Cost": 0,
   "GPU_Cost": 0,
   "App_Cost": 114.35769486026666,
   "StartDate": "2021/01/07",
   "Project": "default"
  },
  {
   "CPU_Hours": 104.76290224776,
   "Mem_GB_Hours": 0.01517216104379893,
   "GPU_Hours": 0,
   "Runtime": 2.1825604634949998,
   "App_Hours": 104.76290224776,
   "JobId": "26260",
   "Queue": "q_x86_cn_sim",
   "User": "simforge1",
   "App": "LS-DYNA",
   "JobDescription": "Batch-LS-DYNA",
   "JobName": "/home/export/online3/amd_share/shangruan/bin/dynayaml /home/export/base/nsccwuxi_amd/simforge1/WORK/JOB-OK/foam_ok.k single",
   "Cluster": "aip",
   "CPU_Cost": 52.38145112388,
   "Mem_Cost": 0,
   "GPU_Cost": 0,
   "App_Cost": 523.8145112388,
   "StartDate": "2021/01/10",
   "Project": "default"
  },
  {
   "CPU_Hours": 25.91199270190223,
   "Mem_GB_Hours": 0.005904726366309119,
   "GPU_Hours": 0,
   "Runtime": 0.8097497719344446,
   "App_Hours": 25.91199270190223,
   "JobId": "25824",
   "Queue": "q_x86_cn_sim",
   "User": "simforge1",
   "App": "LS-DYNA",
   "JobDescription": "Batch-LS-DYNA",
   "JobName": "/home/export/online3/amd_share/shangruan/bin/dynayaml /home/export/base/nsccwuxi_amd/simforge1/WORK/JOB-OK/TEST_31.k single",
   "Cluster": "aip",
   "CPU_Cost": 12.955996350951114,
   "Mem_Cost": 0,
   "GPU_Cost": 0,
   "App_Cost": 129.5599635095111,
   "StartDate": "2021/01/07",
   "Project": "default"
  },
  {
   "CPU_Hours": 9.413509108737777,
   "Mem_GB_Hours": 0.0029809438859297434,
   "GPU_Hours": 0,
   "Runtime": 0.29417215964805554,
   "App_Hours": 9.413509108737777,
   "JobId": "25141",
   "Queue": "q_x86_cn_sim",
   "User": "simforge1",
   "App": "LS-DYNA",
   "JobDescription": "Batch-LS-DYNA",
   "JobName": "/home/export/online3/amd_share/shangruan/bin/dynayaml /home/export/base/nsccwuxi_amd/simforge1/WORK/JOB-OK/test_15.k single",
   "Cluster": "aip",
   "CPU_Cost": 4.706754554368889,
   "Mem_Cost": 0,
   "GPU_Cost": 0,
   "App_Cost": 47.06754554368889,
   "StartDate": "2021/01/05",
   "Project": "default"
  },
  {
   "CPU_Hours": 9.333544517342222,
   "Mem_GB_Hours": 0.003493539923891498,
   "GPU_Hours": 0,
   "Runtime": 0.29167326616694444,
   "App_Hours": 9.333544517342222,
   "JobId": "25666",
   "Queue": "q_x86_cn_sim",
   "User": "simforge1",
   "App": "LS-DYNA",
   "JobDescription": "Batch-LS-DYNA",
   "JobName": "/home/export/online3/amd_share/shangruan/bin/dynayaml /home/export/base/nsccwuxi_amd/simforge1/WORK/JOB-OK/TEST_24.k single",
   "Cluster": "aip",
   "CPU_Cost": 4.666772258671111,
   "Mem_Cost": 0,
   "GPU_Cost": 0,
   "App_Cost": 46.667722586711115,
   "StartDate": "2021/01/06",
   "Project": "default"
  },
  {
   "CPU_Hours": 21.49374744119111,
   "Mem_GB_Hours": 0.006820811260834662,
   "GPU_Hours": 0,
   "Runtime": 0.6716796075372222,
   "App_Hours": 21.49374744119111,
   "JobId": "26052",
   "Queue": "q_x86_cn_sim",
   "User": "simforge1",
   "App": "LS-DYNA",
   "JobDescription": "Batch-LS-DYNA",
   "JobName": "/home/export/online3/amd_share/shangruan/bin/dynayaml /home/export/base/nsccwuxi_amd/simforge1/WORK/JOB-OK/FORM_2.k single",
   "Cluster": "aip",
   "CPU_Cost": 10.746873720595556,
   "Mem_Cost": 0,
   "GPU_Cost": 0,
   "App_Cost": 107.46873720595555,
   "StartDate": "2021/01/08",
   "Project": "default"
  },
  {
   "CPU_Hours": 3.226883820568889,
   "Mem_GB_Hours": 0.001585243728704976,
   "GPU_Hours": 0,
   "Runtime": 0.10084011939277777,
   "App_Hours": 3.226883820568889,
   "JobId": "25677",
   "Queue": "q_x86_cn_sim",
   "User": "simforge1",
   "App": "LS-DYNA",
   "JobDescription": "Batch-LS-DYNA",
   "JobName": "/home/export/online3/amd_share/shangruan/bin/dynayaml /home/export/base/nsccwuxi_amd/simforge1/WORK/JOB-OK/test_25.k single",
   "Cluster": "aip",
   "CPU_Cost": 1.6134419102844444,
   "Mem_Cost": 0,
   "GPU_Cost": 0,
   "App_Cost": 16.134419102844443,
   "StartDate": "2021/01/06",
   "Project": "default"
  },
  {
   "CPU_Hours": 3.0755555555555554,
   "Mem_GB_Hours": 0.0005915652381049261,
   "GPU_Hours": 0,
   "Runtime": 0.04805555555555555,
   "App_Hours": 3.0755555555555554,
   "JobId": "26163",
   "Queue": "q_x86_cn_sim",
   "User": "simforge1",
   "App": "LS-DYNA",
   "JobDescription": "Batch-LS-DYNA",
   "JobName": "/home/export/online3/amd_share/shangruan/bin/dynayaml /home/export/base/nsccwuxi_amd/simforge1/WORK/JOB-OK/form_7.k single",
   "Cluster": "aip",
   "CPU_Cost": 1.5377777777777777,
   "Mem_Cost": 0,
   "GPU_Cost": 0,
   "App_Cost": 15.377777777777776,
   "StartDate": "2021/01/09",
   "Project": "default"
  },
  {
   "CPU_Hours": 23.55616509127111,
   "Mem_GB_Hours": 0.0063555692425841265,
   "GPU_Hours": 0,
   "Runtime": 0.7361301591022222,
   "App_Hours": 23.55616509127111,
   "JobId": "25787",
   "Queue": "q_x86_cn_sim",
   "User": "simforge1",
   "App": "LS-DYNA",
   "JobDescription": "Batch-LS-DYNA",
   "JobName": "/home/export/online3/amd_share/shangruan/bin/dynayaml /home/export/base/nsccwuxi_amd/simforge1/WORK/JOB-OK/test_28.k single",
   "Cluster": "aip",
   "CPU_Cost": 11.778082545635556,
   "Mem_Cost": 0,
   "GPU_Cost": 0,
   "App_Cost": 117.78082545635556,
   "StartDate": "2021/01/07",
   "Project": "default"
  },
  {
   "CPU_Hours": 11.320329382033334,
   "Mem_GB_Hours": 0.004845436127549098,
   "GPU_Hours": 0,
   "Runtime": 0.4716803909180556,
   "App_Hours": 11.320329382033334,
   "JobId": "25650",
   "Queue": "q_x86_cn_sim",
   "User": "simforge1",
   "App": "LS-DYNA",
   "JobDescription": "Batch-LS-DYNA",
   "JobName": "/home/export/online3/amd_share/shangruan/bin/dynayaml /home/export/base/nsccwuxi_amd/simforge1/WORK/JOB-OK/TEST_24.k single",
   "Cluster": "aip",
   "CPU_Cost": 5.660164691016667,
   "Mem_Cost": 0,
   "GPU_Cost": 0,
   "App_Cost": 56.60164691016667,
   "StartDate": "2021/01/06",
   "Project": "default"
  },
  {
   "CPU_Hours": 125.52888888888889,
   "Mem_GB_Hours": 0.030160364574856227,
   "GPU_Hours": 0,
   "Runtime": 1.9613888888888888,
   "App_Hours": 125.52888888888889,
   "JobId": "25564",
   "Queue": "q_x86_cn_sim",
   "User": "simforge1",
   "App": "LS-DYNA",
   "JobDescription": "Batch-LS-DYNA",
   "JobName": "/home/export/online3/amd_share/shangruan/bin/dynayaml /home/export/base/nsccwuxi_amd/simforge1/WORK/JOB-OK/TEST_20.k single",
   "Cluster": "aip",
   "CPU_Cost": 62.76444444444444,
   "Mem_Cost": 0,
   "GPU_Cost": 0,
   "App_Cost": 627.6444444444444,
   "StartDate": "2021/01/06",
   "Project": "default"
  },
  {
   "CPU_Hours": 29.70754614291556,
   "Mem_GB_Hours": 0.007013827948787172,
   "GPU_Hours": 0,
   "Runtime": 0.9283608169661113,
   "App_Hours": 29.70754614291556,
   "JobId": "25833",
   "Queue": "q_x86_cn_sim",
   "User": "simforge1",
   "App": "LS-DYNA",
   "JobDescription": "Batch-LS-DYNA",
   "JobName": "/home/export/online3/amd_share/shangruan/bin/dynayaml /home/export/base/nsccwuxi_amd/simforge1/WORK/JOB-OK/test_32.k single",
   "Cluster": "aip",
   "CPU_Cost": 14.85377307145778,
   "Mem_Cost": 0,
   "GPU_Cost": 0,
   "App_Cost": 148.53773071457778,
   "StartDate": "2021/01/07",
   "Project": "default"
  },
  {
   "CPU_Hours": 29.858760617653328,
   "Mem_GB_Hours": 0.006784301829182037,
   "GPU_Hours": 0,
   "Runtime": 0.9330862693016665,
   "App_Hours": 29.858760617653328,
   "JobId": "25844",
   "Queue": "q_x86_cn_sim",
   "User": "simforge1",
   "App": "LS-DYNA",
   "JobDescription": "Batch-LS-DYNA",
   "JobName": "/home/export/online3/amd_share/shangruan/bin/dynayaml /home/export/base/nsccwuxi_amd/simforge1/WORK/JOB-OK/teat_33.k single",
   "Cluster": "aip",
   "CPU_Cost": 14.929380308826664,
   "Mem_Cost": 0,
   "GPU_Cost": 0,
   "App_Cost": 149.29380308826666,
   "StartDate": "2021/01/07",
   "Project": "default"
  },
  {
   "CPU_Hours": 50.68607366430223,
   "Mem_GB_Hours": 0.011504270677588992,
   "GPU_Hours": 0,
   "Runtime": 1.5839398020094446,
   "App_Hours": 50.68607366430223,
   "JobId": "26062",
   "Queue": "q_x86_cn_sim",
   "User": "simforge1",
   "App": "LS-DYNA",
   "JobDescription": "Batch-LS-DYNA",
   "JobName": "/home/export/online3/amd_share/shangruan/bin/dynayaml /home/export/base/nsccwuxi_amd/simforge1/WORK/JOB-OK/FORM.k single",
   "Cluster": "aip",
   "CPU_Cost": 25.343036832151114,
   "Mem_Cost": 0,
   "GPU_Cost": 0,
   "App_Cost": 253.43036832151114,
   "StartDate": "2021/01/08",
   "Project": "default"
  },
  {
   "CPU_Hours": 16.106995418693334,
   "Mem_GB_Hours": 0.005380800837631665,
   "GPU_Hours": 0,
   "Runtime": 0.5033436068341667,
   "App_Hours": 16.106995418693334,
   "JobId": "25653",
   "Queue": "q_x86_cn_sim",
   "User": "simforge1",
   "App": "LS-DYNA",
   "JobDescription": "Batch-LS-DYNA",
   "JobName": "/home/export/online3/amd_share/shangruan/bin/dynayaml /home/export/base/nsccwuxi_amd/simforge1/WORK/JOB-OK/TEST_24.k single",
   "Cluster": "aip",
   "CPU_Cost": 8.053497709346667,
   "Mem_Cost": 0,
   "GPU_Cost": 0,
   "App_Cost": 80.53497709346667,
   "StartDate": "2021/01/06",
   "Project": "default"
  },
  {
   "CPU_Hours": 29.707065120195555,
   "Mem_GB_Hours": 0.004463729471406877,
   "GPU_Hours": 0,
   "Runtime": 0.46417289250305555,
   "App_Hours": 29.707065120195555,
   "JobId": "26165",
   "Queue": "q_x86_cn_sim",
   "User": "simforge1",
   "App": "LS-DYNA",
   "JobDescription": "Batch-LS-DYNA",
   "JobName": "/home/export/online3/amd_share/shangruan/bin/dynayaml /home/export/base/nsccwuxi_amd/simforge1/WORK/JOB-OK/form_7.k single",
   "Cluster": "aip",
   "CPU_Cost": 14.853532560097777,
   "Mem_Cost": 0,
   "GPU_Cost": 0,
   "App_Cost": 148.53532560097779,
   "StartDate": "2021/01/09",
   "Project": "default"
  },
  {
   "CPU_Hours": 33.427923496733335,
   "Mem_GB_Hours": 0.004874466281911314,
   "GPU_Hours": 0,
   "Runtime": 0.6964150728486111,
   "App_Hours": 33.427923496733335,
   "JobId": "27184",
   "Queue": "q_x86_cn_sim",
   "User": "simforge1",
   "App": "LS-DYNA",
   "JobDescription": "Batch-LS-DYNA",
   "JobName": "/home/export/online3/amd_share/shangruan/bin/dynayaml /home/export/base/nsccwuxi_amd/simforge1/WORK/JOB-OK/case_5_cfrp.k single",
   "Cluster": "aip",
   "CPU_Cost": 16.713961748366668,
   "Mem_Cost": 0,
   "GPU_Cost": 0,
   "App_Cost": 167.13961748366665,
   "StartDate": "2021/01/17",
   "Project": "default"
  },
  {
   "CPU_Hours": 317.27611630048006,
   "Mem_GB_Hours": 0.04579110608667278,
   "GPU_Hours": 0,
   "Runtime": 6.609919089593333,
   "App_Hours": 317.27611630048006,
   "JobId": "26947",
   "Queue": "q_x86_cn_sim",
   "User": "simforge1",
   "App": "LS-DYNA",
   "JobDescription": "Batch-LS-DYNA",
   "JobName": "/home/export/online3/amd_share/shangruan/bin/dynayaml /home/export/base/nsccwuxi_amd/simforge1/WORK/JOB-OK/20210115.k single",
   "Cluster": "aip",
   "CPU_Cost": 158.63805815024003,
   "Mem_Cost": 0,
   "GPU_Cost": 0,
   "App_Cost": 1586.3805815023995,
   "StartDate": "2021/01/15",
   "Project": "default"
  },
  {
   "CPU_Hours": 27.760526130440002,
   "Mem_GB_Hours": 0.0041370576039923,
   "GPU_Hours": 0,
   "Runtime": 0.5783442943841667,
   "App_Hours": 27.760526130440002,
   "JobId": "26272",
   "Queue": "q_x86_cn_sim",
   "User": "simforge1",
   "App": "LS-DYNA",
   "JobDescription": "Batch-LS-DYNA",
   "JobName": "/home/export/online3/amd_share/shangruan/bin/dynayaml /home/export/base/nsccwuxi_amd/simforge1/WORK/JOB-OK/OK/al_ok.k single",
   "Cluster": "aip",
   "CPU_Cost": 13.880263065220001,
   "Mem_Cost": 0,
   "GPU_Cost": 0,
   "App_Cost": 138.8026306522,
   "StartDate": "2021/01/10",
   "Project": "default"
  },
  {
   "CPU_Hours": 19.84934709170667,
   "Mem_GB_Hours": 0.00618711359311639,
   "GPU_Hours": 0,
   "Runtime": 0.6202920966158334,
   "App_Hours": 19.84934709170667,
   "JobId": "25771",
   "Queue": "q_x86_cn_sim",
   "User": "simforge1",
   "App": "LS-DYNA",
   "JobDescription": "Batch-LS-DYNA",
   "JobName": "/home/export/online3/amd_share/shangruan/bin/dynayaml /home/export/base/nsccwuxi_amd/simforge1/WORK/JOB-OK/test_27.k single",
   "Cluster": "aip",
   "CPU_Cost": 9.924673545853334,
   "Mem_Cost": 0,
   "GPU_Cost": 0,
   "App_Cost": 99.24673545853332,
   "StartDate": "2021/01/07",
   "Project": "default"
  },
  {
   "CPU_Hours": 0.3694483718161111,
   "Mem_GB_Hours": 0.25064685867031383,
   "GPU_Hours": 0.3694483718161111,
   "Runtime": 0.3694483718161111,
   "App_Hours": 0.3694483718161111,
   "JobId": "24673",
   "Queue": "local",
   "User": "simforge1",
   "App": "Abaqus614",
   "JobDescription": "Abaqus614",
   "JobName": "cubevnc",
   "Cluster": "aip",
   "CPU_Cost": 0.18472418590805556,
   "Mem_Cost": 0,
   "GPU_Cost": 0.18472418590805556,
   "App_Cost": 0,
   "StartDate": "2021/01/03",
   "Project": "default"
  },
  {
   "CPU_Hours": 23.200829226382222,
   "Mem_GB_Hours": 0.0030199330919170805,
   "GPU_Hours": 0,
   "Runtime": 0.3625129566622222,
   "App_Hours": 23.200829226382222,
   "JobId": "25645",
   "Queue": "q_x86_cn_sim",
   "User": "simforge1",
   "App": "LS-DYNA",
   "JobDescription": "Batch-LS-DYNA",
   "JobName": "/home/export/online3/amd_share/shangruan/bin/dynayaml /home/export/base/nsccwuxi_amd/simforge1/WORK/JOB-OK/TEST_24.k single",
   "Cluster": "aip",
   "CPU_Cost": 11.600414613191111,
   "Mem_Cost": 0,
   "GPU_Cost": 0,
   "App_Cost": 116.00414613191111,
   "StartDate": "2021/01/06",
   "Project": "default"
  },
  {
   "CPU_Hours": 94.45576313598221,
   "Mem_GB_Hours": 0.011704020956874197,
   "GPU_Hours": 0,
   "Runtime": 1.475871298999722,
   "App_Hours": 94.45576313598221,
   "JobId": "25625",
   "Queue": "q_x86_cn_sim",
   "User": "simforge1",
   "App": "LS-DYNA",
   "JobDescription": "Batch-LS-DYNA",
   "JobName": "/home/export/online3/amd_share/shangruan/bin/dynayaml /home/export/base/nsccwuxi_amd/simforge1/WORK/JOB-OK/TEST_23.k single",
   "Cluster": "aip",
   "CPU_Cost": 47.227881567991105,
   "Mem_Cost": 0,
   "GPU_Cost": 0,
   "App_Cost": 472.27881567991113,
   "StartDate": "2021/01/06",
   "Project": "default"
  },
  {
   "CPU_Hours": 26.35611916728,
   "Mem_GB_Hours": 0.007824118146034705,
   "GPU_Hours": 0,
   "Runtime": 0.8236287239775,
   "App_Hours": 26.35611916728,
   "JobId": "25670",
   "Queue": "q_x86_cn_sim",
   "User": "simforge1",
   "App": "LS-DYNA",
   "JobDescription": "Batch-LS-DYNA",
   "JobName": "/home/export/online3/amd_share/shangruan/bin/dynayaml /home/export/base/nsccwuxi_amd/simforge1/WORK/JOB-OK/TEST_24.k single",
   "Cluster": "aip",
   "CPU_Cost": 13.17805958364,
   "Mem_Cost": 0,
   "GPU_Cost": 0,
   "App_Cost": 131.7805958364,
   "StartDate": "2021/01/06",
   "Project": "default"
  },
  {
   "CPU_Hours": 121.76269508032001,
   "Mem_GB_Hours": 0.027872279449622835,
   "GPU_Hours": 0,
   "Runtime": 3.8050842212600005,
   "App_Hours": 121.76269508032001,
   "JobId": "26120",
   "Queue": "q_x86_cn_sim",
   "User": "simforge1",
   "App": "LS-DYNA",
   "JobDescription": "Batch-LS-DYNA",
   "JobName": "/home/export/online3/amd_share/shangruan/bin/dynayaml /home/export/base/nsccwuxi_amd/simforge1/WORK/JOB-OK/form_5.k single",
   "Cluster": "aip",
   "CPU_Cost": 60.88134754016001,
   "Mem_Cost": 0,
   "GPU_Cost": 0,
   "App_Cost": 608.8134754015999,
   "StartDate": "2021/01/09",
   "Project": "default"
  },
  {
   "CPU_Hours": 48.12577000245333,
   "Mem_GB_Hours": 0.011044288550746129,
   "GPU_Hours": 0,
   "Runtime": 1.5039303125766665,
   "App_Hours": 48.12577000245333,
   "JobId": "24882",
   "Queue": "q_x86_cn_sim",
   "User": "simforge1",
   "App": "LS-DYNA",
   "JobDescription": "Batch-LS-DYNA",
   "JobName": "/home/export/online3/amd_share/shangruan/bin/dynayaml /home/export/base/nsccwuxi_amd/simforge1/WORK/JOB-OK/TEST_9.k single",
   "Cluster": "aip",
   "CPU_Cost": 24.062885001226665,
   "Mem_Cost": 0,
   "GPU_Cost": 0,
   "App_Cost": 240.6288500122667,
   "StartDate": "2021/01/04",
   "Project": "default"
  },
  {
   "CPU_Hours": 0.4152893018136111,
   "Mem_GB_Hours": 0.2697568843225081,
   "GPU_Hours": 0.4152893018136111,
   "Runtime": 0.4152893018136111,
   "App_Hours": 0.4152893018136111,
   "JobId": "24671",
   "Queue": "local",
   "User": "simforge1",
   "App": "Abaqus",
   "JobDescription": "Abaqus",
   "JobName": "cubevnc",
   "Cluster": "aip",
   "CPU_Cost": 0.20764465090680556,
   "Mem_Cost": 0,
   "GPU_Cost": 0.20764465090680556,
   "App_Cost": 2.0764465090680555,
   "StartDate": "2021/01/03",
   "Project": "default"
  },
  {
   "CPU_Hours": 21.05364728104,
   "Mem_GB_Hours": 0.0049150897826018185,
   "GPU_Hours": 0,
   "Runtime": 0.43861765168833333,
   "App_Hours": 21.05364728104,
   "JobId": "26046",
   "Queue": "q_x86_cn_sim",
   "User": "simforge1",
   "App": "LS-DYNA",
   "JobDescription": "Batch-LS-DYNA",
   "JobName": "/home/export/online3/amd_share/shangruan/bin/dynayaml /home/export/base/nsccwuxi_amd/simforge1/WORK/JOB-OK/form.k single",
   "Cluster": "aip",
   "CPU_Cost": 10.52682364052,
   "Mem_Cost": 0,
   "GPU_Cost": 0,
   "App_Cost": 105.2682364052,
   "StartDate": "2021/01/08",
   "Project": "default"
  }
 ]
}