{"GPU_Hours":75.541944444444,"App_Hours":{"PointWise":{"Hours":3.6694444444444,"UnitPrice":5,"Cost":18.347222222222},"Fluent":{"Hours":3.9052777777778,"UnitPrice":5,"Cost":19.526388888889},"StarCCM":{"Hours":230.16777777778,"UnitPrice":5,"Cost":1150.8388888889},"Abaqus":{"Hours":30.493333333333,"UnitPrice":5,"Cost":152.46666666667},"TankSim":{"Hours":53.6625,"UnitPrice":1,"Cost":53.6625},"LSPrePost":{"Hours":52.826944444444,"UnitPrice":0,"Cost":0},"LS-DYNA":{"Hours":35.886666666667,"UnitPrice":5,"Cost":179.43333333333},"ParaView":{"Hours":76.711666666667,"UnitPrice":0.5,"Cost":38.355833333333},"Abaqus2017":{"Hours":0.85166666666667,"UnitPrice":5,"Cost":4.2583333333333},"Tanksimulator-Openfoam":{"Hours":0.09,"UnitPrice":0,"Cost":0},"Tanksimulator-Calculix":{"Hours":0.09,"UnitPrice":0,"Cost":0}},"Month":"2020-07","CPU_Hours":488.37166666667,"Users":{"simforge1":1910.9004645069},"Mem_GB_Hours":120.54492284669,"App_Cost":1616.8891666667,"Mem_Cost":12.054492284669,"GPU_Cost":37.770972222222,"Total_Cost":1910.9004645069,"CPU_Cost":244.18583333333,"Details":[{"EndDate":"2020\/07\/18","GPU_Hours":0,"App":"PointWise","JobName":"cubevnc","JobId":"4969","Queue":"local","Cluster":"aip","CPU_Hours":3.6694444444444,"User":"simforge1","Mem_GB_Hours":3.7071125772264,"runTime":3.6694444444444,"JobDescription":"PW_test","GPU_Cost":0,"CPU_Cost":1.8347222222222,"Mem_Cost":0.37071125772264,"App_Cost":18.347222222222},{"EndDate":"2020\/07\/18","GPU_Hours":0,"App":"Fluent","JobName":"cubevnc","JobId":"4974","Queue":"q_x86_expr","Cluster":"aip","CPU_Hours":0.0044444444444444,"User":"simforge1","Mem_GB_Hours":0.00029727511935764,"runTime":0.0044444444444444,"JobDescription":"fluent_test","GPU_Cost":0,"CPU_Cost":0.0022222222222222,"Mem_Cost":2.9727511935764e-5,"App_Cost":0.022222222222222},{"EndDate":"2020\/07\/18","GPU_Hours":0,"App":"Fluent","JobName":"cubevnc","JobId":"4975","Queue":"q_x86_share","Cluster":"aip","CPU_Hours":0.12333333333333,"User":"simforge1","Mem_GB_Hours":0.00077256626553006,"runTime":0.010277777777778,"JobDescription":"fluent_test_2","GPU_Cost":0,"CPU_Cost":0.061666666666667,"Mem_Cost":7.7256626553006e-5,"App_Cost":0.61666666666667},{"EndDate":"2020\/07\/18","GPU_Hours":0,"App":"StarCCM","JobName":"cubevnc","JobId":"4976","Queue":"local","Cluster":"aip","CPU_Hours":1.3502777777778,"User":"simforge1","Mem_GB_Hours":0.11911973529392,"runTime":1.3502777777778,"JobDescription":"starccm_test","GPU_Cost":0,"CPU_Cost":0.67513888888889,"Mem_Cost":0.011911973529392,"App_Cost":6.7513888888889},{"EndDate":"2020\/07\/19","GPU_Hours":0,"App":"Abaqus","JobName":"cubevnc","JobId":"5103","Queue":"local","Cluster":"aip","CPU_Hours":0.062777777777778,"User":"simforge1","Mem_GB_Hours":0.030496593051487,"runTime":0.062777777777778,"JobDescription":"Abaqustest","GPU_Cost":0,"CPU_Cost":0.031388888888889,"Mem_Cost":0.0030496593051487,"App_Cost":0.31388888888889},{"EndDate":"2020\/07\/19","GPU_Hours":0,"App":"TankSim","JobName":"cubevnc","JobId":"5101","Queue":"local","Cluster":"aip","CPU_Hours":0.16166666666667,"User":"simforge1","Mem_GB_Hours":0.023442357381185,"runTime":0.16166666666667,"JobDescription":"salome01","GPU_Cost":0,"CPU_Cost":0.080833333333333,"Mem_Cost":0.0023442357381185,"App_Cost":0.16166666666667},{"EndDate":"2020\/07\/19","GPU_Hours":0,"App":"Abaqus","JobName":"cubevnc","JobId":"5105","Queue":"local","Cluster":"aip","CPU_Hours":0.05,"User":"simforge1","Mem_GB_Hours":0.024187088012695,"runTime":0.05,"JobDescription":"Abaqustest","GPU_Cost":0,"CPU_Cost":0.025,"Mem_Cost":0.0024187088012695,"App_Cost":0.25},{"EndDate":"2020\/07\/19","GPU_Hours":0,"App":"Abaqus","JobName":"cubevnc","JobId":"5106","Queue":"local","Cluster":"aip","CPU_Hours":1.8686111111111,"User":"simforge1","Mem_GB_Hours":0.90875100983514,"runTime":1.8686111111111,"JobDescription":"Abaqustest","GPU_Cost":0,"CPU_Cost":0.93430555555556,"Mem_Cost":0.090875100983514,"App_Cost":9.3430555555556},{"EndDate":"2020\/07\/19","GPU_Hours":0,"App":"Abaqus","JobName":"cubevnc","JobId":"5126","Queue":"local","Cluster":"aip","CPU_Hours":0.0069444444444444,"User":"simforge1","Mem_GB_Hours":0.0033985773722331,"runTime":0.0069444444444444,"JobDescription":"abaqus02","GPU_Cost":0,"CPU_Cost":0.0034722222222222,"Mem_Cost":0.00033985773722331,"App_Cost":0.034722222222222},{"EndDate":"2020\/07\/19","GPU_Hours":0,"App":"LSPrePost","JobName":"cubevnc","JobId":"5104","Queue":"local","Cluster":"aip","CPU_Hours":2.7958333333333,"User":"simforge1","Mem_GB_Hours":1.001510365804,"runTime":2.7958333333333,"JobDescription":"new001","GPU_Cost":0,"CPU_Cost":1.3979166666667,"Mem_Cost":0.1001510365804,"App_Cost":0},{"EndDate":"2020\/07\/19","GPU_Hours":0,"App":"LS-DYNA","JobName":"\/home\/export\/base\/nsccwuxi_amd\/simforge1\/GPFS8p\/dyna\/Caravan-V03c-2400k-main-shell16-10ms.k","JobId":"5142","Queue":"q_x86_expr","Cluster":"aip","CPU_Hours":23.793333333333,"User":"simforge1","Mem_GB_Hours":0.010770704481337,"runTime":0.99138888888889,"JobDescription":"Caravan-V03c-2400k-main-shell16-10ms.k","GPU_Cost":0,"CPU_Cost":11.896666666667,"Mem_Cost":0.0010770704481337,"App_Cost":118.96666666667},{"EndDate":"2020\/07\/19","GPU_Hours":0,"App":"Abaqus","JobName":"cubevnc","JobId":"5127","Queue":"local","Cluster":"aip","CPU_Hours":2.4166666666667,"User":"simforge1","Mem_GB_Hours":1.2154502868652,"runTime":2.4166666666667,"JobDescription":"abaqus02","GPU_Cost":0,"CPU_Cost":1.2083333333333,"Mem_Cost":0.12154502868652,"App_Cost":12.083333333333},{"EndDate":"2020\/07\/19","GPU_Hours":0,"App":"ParaView","JobName":"cubevnc","JobId":"5102","Queue":"local","Cluster":"aip","CPU_Hours":4.5080555555556,"User":"simforge1","Mem_GB_Hours":8.0557004716661,"runTime":4.5080555555556,"JobDescription":"1","GPU_Cost":0,"CPU_Cost":2.2540277777778,"Mem_Cost":0.80557004716661,"App_Cost":2.2540277777778},{"EndDate":"2020\/07\/19","GPU_Hours":0,"App":"LSPrePost","JobName":"cubevnc","JobId":"5141","Queue":"local","Cluster":"aip","CPU_Hours":1.68,"User":"simforge1","Mem_GB_Hours":4.7377084350586,"runTime":1.68,"JobDescription":"dyna01","GPU_Cost":0,"CPU_Cost":0.84,"Mem_Cost":0.47377084350586,"App_Cost":0},{"EndDate":"2020\/07\/19","GPU_Hours":0,"App":"Abaqus","JobName":"cubevnc","JobId":"5152","Queue":"local","Cluster":"aip","CPU_Hours":0.084444444444444,"User":"simforge1","Mem_GB_Hours":0.036237369113498,"runTime":0.084444444444444,"JobDescription":"abatest03","GPU_Cost":0,"CPU_Cost":0.042222222222222,"Mem_Cost":0.0036237369113498,"App_Cost":0.42222222222222},{"EndDate":"2020\/07\/19","GPU_Hours":0,"App":"Abaqus2017","JobName":"Job-152216","JobId":"5151","Queue":"q_x86_share","Cluster":"aip","CPU_Hours":0.34666666666667,"User":"simforge1","Mem_GB_Hours":0.0053769938151042,"runTime":0.17333333333333,"JobDescription":"Job-152216-qiuxiao","GPU_Cost":0,"CPU_Cost":0.17333333333333,"Mem_Cost":0.00053769938151042,"App_Cost":1.7333333333333},{"EndDate":"2020\/07\/19","GPU_Hours":0,"App":"Abaqus2017","JobName":"Job-151817","JobId":"5150","Queue":"q_x86_share","Cluster":"aip","CPU_Hours":0.505,"User":"simforge1","Mem_GB_Hours":0.0027962017059326,"runTime":0.2525,"JobDescription":"Job-151817-e1","GPU_Cost":0,"CPU_Cost":0.2525,"Mem_Cost":0.00027962017059326,"App_Cost":2.525},{"EndDate":"2020\/07\/19","GPU_Hours":0,"App":"Abaqus","JobName":"cubevnc","JobId":"5153","Queue":"local","Cluster":"aip","CPU_Hours":0.078888888888889,"User":"simforge1","Mem_GB_Hours":0.033033879597982,"runTime":0.078888888888889,"JobDescription":"abatest03","GPU_Cost":0,"CPU_Cost":0.039444444444444,"Mem_Cost":0.0033033879597982,"App_Cost":0.39444444444444},{"EndDate":"2020\/07\/19","GPU_Hours":0,"App":"Abaqus","JobName":"cubevnc","JobId":"5149","Queue":"local","Cluster":"aip","CPU_Hours":0.38055555555556,"User":"simforge1","Mem_GB_Hours":0.17682483461168,"runTime":0.38055555555556,"JobDescription":"abatest02","GPU_Cost":0,"CPU_Cost":0.19027777777778,"Mem_Cost":0.017682483461168,"App_Cost":1.9027777777778},{"EndDate":"2020\/07\/19","GPU_Hours":0,"App":"Abaqus","JobName":"cubevnc","JobId":"5148","Queue":"local","Cluster":"aip","CPU_Hours":0.42638888888889,"User":"simforge1","Mem_GB_Hours":0.30773083898756,"runTime":0.42638888888889,"JobDescription":"abatest01","GPU_Cost":0,"CPU_Cost":0.21319444444444,"Mem_Cost":0.030773083898756,"App_Cost":2.1319444444444},{"EndDate":"2020\/07\/21","GPU_Hours":0,"App":"","JobName":"swof_\/home\/export\/base\/nsccwuxi_amd\/simforge1\/WORK\/tank\/tank_Mesh5222","JobId":"5290","Queue":"q_x86_share","Cluster":"aip","CPU_Hours":0.016111111111111,"User":"simforge1","Mem_GB_Hours":0.00018148846096463,"runTime":0.016111111111111,"JobDescription":"","GPU_Cost":0,"CPU_Cost":0.0080555555555556,"Mem_Cost":1.8148846096463e-5,"App_Cost":0},{"EndDate":"2020\/07\/21","GPU_Hours":0,"App":"","JobName":"starccToFoam","JobId":"5295","Queue":"q_x86_share","Cluster":"aip","CPU_Hours":0.00027777777777778,"User":"simforge1","Mem_GB_Hours":3.1291113959418e-6,"runTime":0.00027777777777778,"JobDescription":"","GPU_Cost":0,"CPU_Cost":0.00013888888888889,"Mem_Cost":3.1291113959418e-7,"App_Cost":0},{"EndDate":"2020\/07\/21","GPU_Hours":0,"App":"Fluent","JobName":"cubevnc","JobId":"5297","Queue":"q_x86_share","Cluster":"aip","CPU_Hours":3.5866666666667,"User":"simforge1","Mem_GB_Hours":0.02178524017334,"runTime":0.29888888888889,"JobDescription":"fluent_test","GPU_Cost":0,"CPU_Cost":1.7933333333333,"Mem_Cost":0.002178524017334,"App_Cost":17.933333333333},{"EndDate":"2020\/07\/21","GPU_Hours":0,"App":"Fluent","JobName":"cubevnc","JobId":"5299","Queue":"q_x86_share","Cluster":"aip","CPU_Hours":0.11666666666667,"User":"simforge1","Mem_GB_Hours":0.00070588323805067,"runTime":0.0097222222222222,"JobDescription":"fluent_tes","GPU_Cost":0,"CPU_Cost":0.058333333333333,"Mem_Cost":7.0588323805067e-5,"App_Cost":0.58333333333333},{"EndDate":"2020\/07\/22","GPU_Hours":0,"App":"StarCCM","JobName":"cubevnc","JobId":"5298","Queue":"q_x86_share_plus","Cluster":"aip","CPU_Hours":228.7825,"User":"simforge1","Mem_GB_Hours":18.853327432209,"runTime":25.420277777778,"JobDescription":"starccm_test","GPU_Cost":0,"CPU_Cost":114.39125,"Mem_Cost":1.8853327432209,"App_Cost":1143.9125},{"EndDate":"2020\/07\/22","GPU_Hours":0,"App":"TankSim","JobName":"cubevnc","JobId":"5218","Queue":"local","Cluster":"aip","CPU_Hours":51.841666666667,"User":"simforge1","Mem_GB_Hours":9.0305246988932,"runTime":51.841666666667,"JobDescription":"salome01","GPU_Cost":0,"CPU_Cost":25.920833333333,"Mem_Cost":0.90305246988932,"App_Cost":51.841666666667},{"EndDate":"2020\/07\/22","GPU_Hours":0,"App":"ParaView","JobName":"cubevnc","JobId":"5161","Queue":"local","Cluster":"aip","CPU_Hours":71.731944444444,"User":"simforge1","Mem_GB_Hours":22.422799894545,"runTime":71.731944444444,"JobDescription":"1","GPU_Cost":0,"CPU_Cost":35.865972222222,"Mem_Cost":2.2422799894545,"App_Cost":35.865972222222},{"EndDate":"2020\/07\/22","GPU_Hours":0,"App":"StarCCM","JobName":"cubevnc","JobId":"5571","Queue":"q_x86_share_plus","Cluster":"aip","CPU_Hours":0.035,"User":"simforge1","Mem_GB_Hours":0.010320463180542,"runTime":0.0175,"JobDescription":"starccm_test2","GPU_Cost":0,"CPU_Cost":0.0175,"Mem_Cost":0.0010320463180542,"App_Cost":0.175},{"EndDate":"2020\/07\/24","GPU_Hours":25.118055555556,"App":"Abaqus","JobName":"cubevnc","JobId":"5629","Queue":"local","Cluster":"aip","CPU_Hours":25.118055555556,"User":"simforge1","Mem_GB_Hours":10.564293278588,"runTime":25.118055555556,"JobDescription":"abaqusgpu1","GPU_Cost":12.559027777778,"CPU_Cost":12.559027777778,"Mem_Cost":1.0564293278588,"App_Cost":125.59027777778},{"EndDate":"2020\/07\/24","GPU_Hours":25.115,"App":"LSPrePost","JobName":"cubevnc","JobId":"5630","Queue":"local","Cluster":"aip","CPU_Hours":25.115,"User":"simforge1","Mem_GB_Hours":9.0716900634766,"runTime":25.115,"JobDescription":"dynagpu1","GPU_Cost":12.5575,"CPU_Cost":12.5575,"Mem_Cost":0.90716900634766,"App_Cost":0},{"EndDate":"2020\/07\/24","GPU_Hours":0,"App":"TankSim","JobName":"cubevnc","JobId":"5645","Queue":"local","Cluster":"aip","CPU_Hours":0.058055555555556,"User":"simforge1","Mem_GB_Hours":0.0075745243496365,"runTime":0.058055555555556,"JobDescription":"salome01","GPU_Cost":0,"CPU_Cost":0.029027777777778,"Mem_Cost":0.00075745243496365,"App_Cost":0.058055555555556},{"EndDate":"2020\/07\/24","GPU_Hours":0,"App":"Fluent","JobName":"cubevnc","JobId":"5743","Queue":"q_x86_expr","Cluster":"aip","CPU_Hours":0.074166666666667,"User":"simforge1","Mem_GB_Hours":0.0061071840922038,"runTime":0.074166666666667,"JobDescription":"fluent_test","GPU_Cost":0,"CPU_Cost":0.037083333333333,"Mem_Cost":0.00061071840922038,"App_Cost":0.37083333333333},{"EndDate":"2020\/07\/24","GPU_Hours":0.042777777777778,"App":"ParaView","JobName":"cubevnc","JobId":"5762","Queue":"local","Cluster":"aip","CPU_Hours":0.042777777777778,"User":"simforge1","Mem_GB_Hours":0.013070081075033,"runTime":0.042777777777778,"JobDescription":"pvtest01","GPU_Cost":0.021388888888889,"CPU_Cost":0.021388888888889,"Mem_Cost":0.0013070081075033,"App_Cost":0.021388888888889},{"EndDate":"2020\/07\/24","GPU_Hours":0,"App":"LS-DYNA","JobName":"\/home\/export\/online3\/simforge1\/lsdyna\/car2car\/Caravan-V03c-2400k-main-shell16-10ms.k","JobId":"5769","Queue":"q_x86_expr","Cluster":"aip","CPU_Hours":0.073333333333333,"User":"simforge1","Mem_GB_Hours":3.5376018948025e-5,"runTime":0.0030555555555556,"JobDescription":"Caravan-V03c-2400k-main-shell16-10ms.k","GPU_Cost":0,"CPU_Cost":0.036666666666667,"Mem_Cost":3.5376018948025e-6,"App_Cost":0.36666666666667},{"EndDate":"2020\/07\/24","GPU_Hours":0,"App":"LS-DYNA","JobName":"\/home\/export\/online3\/simforge1\/lsdyna\/car2car\/Caravan-V03c-2400k-main-shell16-10ms.k","JobId":"5770","Queue":"q_x86_expr","Cluster":"aip","CPU_Hours":0.053333333333333,"User":"simforge1","Mem_GB_Hours":2.5728013780382e-5,"runTime":0.0022222222222222,"JobDescription":"Caravan-V03c-2400k-main-shell16-10ms.k","GPU_Cost":0,"CPU_Cost":0.026666666666667,"Mem_Cost":2.5728013780382e-6,"App_Cost":0.26666666666667},{"EndDate":"2020\/07\/24","GPU_Hours":0.42888888888889,"App":"ParaView","JobName":"cubevnc","JobId":"5763","Queue":"local","Cluster":"aip","CPU_Hours":0.42888888888889,"User":"simforge1","Mem_GB_Hours":0.18949747721354,"runTime":0.42888888888889,"JobDescription":"pv01","GPU_Cost":0.21444444444444,"CPU_Cost":0.21444444444444,"Mem_Cost":0.018949747721354,"App_Cost":0.21444444444444},{"EndDate":"2020\/07\/24","GPU_Hours":0,"App":"LS-DYNA","JobName":"\/home\/export\/online3\/simforge1\/lsdyna\/car2car\/Caravan-V03c-2400k-main-shell16-10ms.k","JobId":"5771","Queue":"q_x86_expr","Cluster":"aip","CPU_Hours":11.966666666667,"User":"simforge1","Mem_GB_Hours":0.011511209275987,"runTime":0.99722222222222,"JobDescription":"Caravan-V03c-2400k-main-shell16-10ms.k","GPU_Cost":0,"CPU_Cost":5.9833333333333,"Mem_Cost":0.0011511209275987,"App_Cost":59.833333333333},{"EndDate":"2020\/07\/24","GPU_Hours":1.6011111111111,"App":"TankSim","JobName":"cubevnc","JobId":"5772","Queue":"local","Cluster":"aip","CPU_Hours":1.6011111111111,"User":"simforge1","Mem_GB_Hours":0.27671180301242,"runTime":1.6011111111111,"JobDescription":"tank01","GPU_Cost":0.80055555555556,"CPU_Cost":0.80055555555556,"Mem_Cost":0.027671180301242,"App_Cost":1.6011111111111},{"EndDate":"2020\/07\/24","GPU_Hours":2.325,"App":"LSPrePost","JobName":"cubevnc","JobId":"5760","Queue":"local","Cluster":"aip","CPU_Hours":2.325,"User":"simforge1","Mem_GB_Hours":5.4331478118896,"runTime":2.325,"JobDescription":"dynagpu1","GPU_Cost":1.1625,"CPU_Cost":1.1625,"Mem_Cost":0.54331478118896,"App_Cost":0},{"EndDate":"2020\/07\/24","GPU_Hours":0,"App":"Tanksimulator-Openfoam","JobName":"","JobId":"5780","Queue":"q_x86_expr","Cluster":"aip","CPU_Hours":0.09,"User":"simforge1","Mem_GB_Hours":5.7220458984375e-6,"runTime":0.0075,"JobDescription":"testmonpoint","GPU_Cost":0,"CPU_Cost":0.045,"Mem_Cost":5.7220458984375e-7,"App_Cost":0},{"EndDate":"2020\/07\/24","GPU_Hours":0,"App":"Tanksimulator-Calculix","JobName":"","JobId":"5779","Queue":"q_x86_expr","Cluster":"aip","CPU_Hours":0.09,"User":"simforge1","Mem_GB_Hours":8.514404296875e-5,"runTime":0.0075,"JobDescription":"testmonpoint","GPU_Cost":0,"CPU_Cost":0.045,"Mem_Cost":8.514404296875e-6,"App_Cost":0},{"EndDate":"2020\/07\/29","GPU_Hours":20.911111111111,"App":"LSPrePost","JobName":"cubevnc","JobId":"5896","Queue":"local","Cluster":"aip","CPU_Hours":20.911111111111,"User":"simforge1","Mem_GB_Hours":24.230801052517,"runTime":20.911111111111,"JobDescription":"ls-dyna","GPU_Cost":10.455555555556,"CPU_Cost":10.455555555556,"Mem_Cost":2.4230801052517,"App_Cost":0}],"User":"simforge1"}