{"GPU_Hours":25.347222222222,"App_Hours":{"LS-DYNA":{"Hours":28.538888888889,"UnitPrice":5,"Cost":142.69444444444},"LSPrePost":{"Hours":25.347222222222,"UnitPrice":0,"Cost":0}},"Month":"2020-08","CPU_Hours":53.886111111111,"Users":{"simforge1":182.49187887139},"Mem_GB_Hours":43.027677602768,"App_Cost":142.69444444444,"Mem_Cost":4.3027677602768,"GPU_Cost":12.673611111111,"Total_Cost":182.49187887139,"CPU_Cost":22.821055555556,"Details":[{"EndDate":"2020\/08\/23","GPU_Hours":0,"App":"LS-DYNA","JobName":"\/home\/export\/base\/nsccwuxi_amd\/simforge1\/WORK\/mpdb\/25_50_NHTSA_OBLIQUE_L-ACCORD_Full_model.key","JobId":"9131","Queue":"q_x86_expr","Cluster":"aip","CPU_Hours":0.026666666666667,"User":"simforge1","Mem_GB_Hours":0.00013102213541667,"runTime":0.0066666666666667,"JobDescription":"25_50_NHTSA_OBLIQUE_L-ACCORD_Full_model.key","GPU_Cost":0,"CPU_Cost":0.013333333333333,"Mem_Cost":1.3102213541667e-5,"App_Cost":0.13333333333333},{"EndDate":"2020\/08\/23","GPU_Hours":0.48305555555556,"App":"LSPrePost","JobName":"cubevnc","JobId":"9130","Queue":"local","Cluster":"aip","CPU_Hours":0.48305555555556,"User":"simforge1","Mem_GB_Hours":0.13786792967055,"runTime":0.48305555555556,"JobDescription":"ls-dyna","GPU_Cost":0.24152777777778,"CPU_Cost":0.24152777777778,"Mem_Cost":0.013786792967055,"App_Cost":0},{"EndDate":"2020\/08\/23","GPU_Hours":0.13861111111111,"App":"LSPrePost","JobName":"cubevnc","JobId":"9132","Queue":"local","Cluster":"aip","CPU_Hours":0.13861111111111,"User":"simforge1","Mem_GB_Hours":0.035003874037001,"runTime":0.13861111111111,"JobDescription":"mpdb","GPU_Cost":0.069305555555556,"CPU_Cost":0.069305555555556,"Mem_Cost":0.0035003874037001,"App_Cost":0},{"EndDate":"2020\/08\/23","GPU_Hours":0,"App":"LS-DYNA","JobName":"\/home\/export\/base\/nsccwuxi_amd\/simforge1\/WORK\/mpdb\/01_OBLIQUE\/01_LEFT_SIDE_IMPACT\/25_50_NHTSA_OBLIQUE_L-ACCORD_Full_model.key","JobId":"9135","Queue":"q_x86_expr","Cluster":"aip","CPU_Hours":7.9022222222222,"User":"simforge1","Mem_GB_Hours":0.0194244172838,"runTime":0.98777777777778,"JobDescription":"25_50_NHTSA_OBLIQUE_L-ACCORD_Full_model.key","GPU_Cost":0,"CPU_Cost":3.9511111111111,"Mem_Cost":0.00194244172838,"App_Cost":39.511111111111},{"EndDate":"2020\/08\/24","GPU_Hours":24.71,"App":"LSPrePost","JobName":"cubevnc","JobId":"9133","Queue":"local","Cluster":"aip","CPU_Hours":24.71,"User":"simforge1","Mem_GB_Hours":42.81474281311,"runTime":24.71,"JobDescription":"mpdb","GPU_Cost":12.355,"CPU_Cost":12.355,"Mem_Cost":4.281474281311,"App_Cost":0},{"EndDate":"2020\/08\/24","GPU_Hours":0,"App":"LS-DYNA","JobName":"\/home\/export\/base\/nsccwuxi_amd\/simforge1\/WORK\/mpdb\/MPDB.Main.Rigid.Tube.k","JobId":"9340","Queue":"q_x86_vio_share","Cluster":"aip","CPU_Hours":3.4666666666667,"User":"simforge1","Mem_GB_Hours":0.0039215511745877,"runTime":0.14444444444444,"JobDescription":"MPDB.Main.Rigid.Tube.k","GPU_Cost":0,"CPU_Cost":1.04,"Mem_Cost":0.00039215511745877,"App_Cost":17.333333333333},{"EndDate":"2020\/08\/24","GPU_Hours":0.015555555555556,"App":"LSPrePost","JobName":"cubevnc","JobId":"9344","Queue":"local","Cluster":"aip","CPU_Hours":0.015555555555556,"User":"simforge1","Mem_GB_Hours":0.0047160847981771,"runTime":0.015555555555556,"JobDescription":"aa","GPU_Cost":0.0077777777777778,"CPU_Cost":0.0077777777777778,"Mem_Cost":0.00047160847981771,"App_Cost":0},{"EndDate":"2020\/08\/24","GPU_Hours":0,"App":"LS-DYNA","JobName":"\/home\/export\/base\/nsccwuxi_amd\/simforge1\/WORK\/mpdb\/MPDB.Main.Rigid.Tube.k","JobId":"9353","Queue":"q_x86_vio_share","Cluster":"aip","CPU_Hours":1.33,"User":"simforge1","Mem_GB_Hours":0.0021748606363932,"runTime":0.11083333333333,"JobDescription":"MPDB.Main.Rigid.Tube.k","GPU_Cost":0,"CPU_Cost":0.399,"Mem_Cost":0.00021748606363932,"App_Cost":6.65},{"EndDate":"2020\/08\/24","GPU_Hours":0,"App":"LS-DYNA","JobName":"\/home\/export\/base\/nsccwuxi_amd\/simforge1\/WORK\/mpdb\/MPDB.Main.Rigid.Tube.k","JobId":"9355","Queue":"q_x86_vio_share","Cluster":"aip","CPU_Hours":15.813333333333,"User":"simforge1","Mem_GB_Hours":0.0096950499216715,"runTime":0.49416666666667,"JobDescription":"MPDB.Main.Rigid.Tube.k","GPU_Cost":0,"CPU_Cost":4.744,"Mem_Cost":0.00096950499216715,"App_Cost":79.066666666667}],"User":"simforge1"}