{
 "User": "simforge1",
 "Queues": "all",
 "Clusters": [
  "aip"
 ],
 "Month": "2020-12",
 "CPU_Hours": 3025.4753443991112,
 "Mem_GB_Hours": 21.998665026914075,
 "GPU_Hours": 25.079472461071664,
 "App_Cost": 15002.114081912407,
 "CPU_Cost": 1512.7376721995556,
 "Mem_Cost": 0,
 "GPU_Cost": 12.539736230535832,
 "Total_Cost": 19740.67998342258,
 "App_Hours": {
  "Abaqus": {
   "Hours": 1287.656699499551,
   "Cost": 6438.283497497754
  },
  "Abaqus614": {
   "Hours": 24.673932554542777,
   "Cost": 0
  },
  "LS-DYNA": {
   "Hours": 1712.7661168829331,
   "Cost": 8563.83058441466
  },
  "LSPrePost": {
   "Hours": 0.3785954620844444,
   "Cost": 0
  }
 },
 "Details": [
  {
   "CPU_Hours": 0,
   "Mem_GB_Hours": 0,
   "GPU_Hours": 0,
   "Runtime": 0,
   "App_Hours": 0,
   "JobId": "20852",
   "Queue": "q_x86_cn_sim",
   "User": "simforge1",
   "App": "LS-DYNA",
   "JobDescription": "Batch-LS-DYNA",
   "JobName": "/home/export/online3/amd_share/shangruan/bin/dynayaml /home/export/base/nsccwuxi_amd/simforge1/WORK/JOB-OK/Wind21.k single",
   "Cluster": "aip",
   "CPU_Cost": 0,
   "Mem_Cost": 0,
   "GPU_Cost": 0,
   "App_Cost": 0,
   "StartDate": "2020/12/14",
   "Project": "default"
  },
  {
   "CPU_Hours": 0.017777777777777778,
   "Mem_GB_Hours": 0.0000036186642116970485,
   "GPU_Hours": 0,
   "Runtime": 0.0002777777777777778,
   "App_Hours": 0.017777777777777778,
   "JobId": "20853",
   "Queue": "q_x86_cn_sim",
   "User": "simforge1",
   "App": "LS-DYNA",
   "JobDescription": "Batch-LS-DYNA",
   "JobName": "/home/export/online3/amd_share/shangruan/bin/dynayaml /home/export/base/nsccwuxi_amd/simforge1/WORK/JOB-OK/Wind21.k single",
   "Cluster": "aip",
   "CPU_Cost": 0.008888888888888889,
   "Mem_Cost": 0,
   "GPU_Cost": 0,
   "App_Cost": 0.08888888888888889,
   "StartDate": "2020/12/14",
   "Project": "default"
  },
  {
   "CPU_Hours": 30.74109805894667,
   "Mem_GB_Hours": 0.010143092753324473,
   "GPU_Hours": 0,
   "Runtime": 1.2808790857894445,
   "App_Hours": 30.74109805894667,
   "JobId": "22686",
   "Queue": "q_x86_cn_sim",
   "User": "simforge1",
   "App": "Abaqus",
   "JobDescription": "Batch-Abaqus",
   "JobName": "/home/export/online3/amd_share/shangruan/bin/abaqus614 /home/export/base/nsccwuxi_amd/simforge1/WORK/JOB-OK/aba/Job-24_OK_1.inp",
   "Cluster": "aip",
   "CPU_Cost": 15.370549029473334,
   "Mem_Cost": 0,
   "GPU_Cost": 0,
   "App_Cost": 153.70549029473332,
   "StartDate": "2020/12/23",
   "Project": "default"
  },
  {
   "CPU_Hours": 0.017777777777777778,
   "Mem_GB_Hours": 0.000003619723849826389,
   "GPU_Hours": 0,
   "Runtime": 0.0002777777777777778,
   "App_Hours": 0.017777777777777778,
   "JobId": "20859",
   "Queue": "q_x86_cn_sim",
   "User": "simforge1",
   "App": "LS-DYNA",
   "JobDescription": "Batch-LS-DYNA",
   "JobName": "/home/export/online3/amd_share/shangruan/bin/dynayaml /home/export/base/nsccwuxi_amd/simforge1/WORK/JOB-OK/56/Wind56.k single",
   "Cluster": "aip",
   "CPU_Cost": 0.008888888888888889,
   "Mem_Cost": 0,
   "GPU_Cost": 0,
   "App_Cost": 0.08888888888888889,
   "StartDate": "2020/12/14",
   "Project": "default"
  },
  {
   "CPU_Hours": 3.0755555555555554,
   "Mem_GB_Hours": 0.0006370279524061414,
   "GPU_Hours": 0,
   "Runtime": 0.04805555555555555,
   "App_Hours": 3.0755555555555554,
   "JobId": "22754",
   "Queue": "q_x86_cn_sim",
   "User": "simforge1",
   "App": "Abaqus",
   "JobDescription": "Batch-Abaqus",
   "JobName": "/home/export/online3/amd_share/shangruan/bin/abaqus614 /home/export/base/nsccwuxi_amd/simforge1/WORK/JOB-OK/JOB_24/Job-24_12.inp",
   "Cluster": "aip",
   "CPU_Cost": 1.5377777777777777,
   "Mem_Cost": 0,
   "GPU_Cost": 0,
   "App_Cost": 15.377777777777776,
   "StartDate": "2020/12/24",
   "Project": "default"
  },
  {
   "CPU_Hours": 44.40949168634667,
   "Mem_GB_Hours": 0.00596188854093963,
   "GPU_Hours": 0,
   "Runtime": 0.6938983075991667,
   "App_Hours": 44.40949168634667,
   "JobId": "19099",
   "Queue": "q_x86_cn_sim",
   "User": "simforge1",
   "App": "Abaqus",
   "JobDescription": "Batch-Abaqus",
   "JobName": "/home/export/online3/amd_share/shangruan/bin/abaqus614 /home/export/base/nsccwuxi_amd/simforge1/WORK/JOB-OK/Job-34.inp",
   "Cluster": "aip",
   "CPU_Cost": 22.204745843173335,
   "Mem_Cost": 0,
   "GPU_Cost": 0,
   "App_Cost": 222.04745843173336,
   "StartDate": "2020/12/01",
   "Project": "default"
  },
  {
   "CPU_Hours": 81.53651535346667,
   "Mem_GB_Hours": 0.01192731005269485,
   "GPU_Hours": 0,
   "Runtime": 1.6986774031972225,
   "App_Hours": 81.53651535346667,
   "JobId": "21004",
   "Queue": "q_x86_cn_sim",
   "User": "simforge1",
   "App": "LS-DYNA",
   "JobDescription": "Batch-LS-DYNA",
   "JobName": "/home/export/online3/amd_share/shangruan/bin/dynayaml /home/export/base/nsccwuxi_amd/simforge1/WORK/JOB-OK/contact.k single",
   "Cluster": "aip",
   "CPU_Cost": 40.768257676733334,
   "Mem_Cost": 0,
   "GPU_Cost": 0,
   "App_Cost": 407.6825767673334,
   "StartDate": "2020/12/15",
   "Project": "default"
  },
  {
   "CPU_Hours": 0.5055754180855556,
   "Mem_GB_Hours": 0.5236509236308367,
   "GPU_Hours": 0.5055754180855556,
   "Runtime": 0.5055754180855556,
   "App_Hours": 0.5055754180855556,
   "JobId": "22688",
   "Queue": "local",
   "User": "simforge1",
   "App": "Abaqus614",
   "JobDescription": "Abaqus614",
   "JobName": "cubevnc",
   "Cluster": "aip",
   "CPU_Cost": 0.2527877090427778,
   "Mem_Cost": 0,
   "GPU_Cost": 0.2527877090427778,
   "App_Cost": 0,
   "StartDate": "2020/12/23",
   "Project": "default"
  },
  {
   "CPU_Hours": 254.97956704568884,
   "Mem_GB_Hours": 0.056022733405659136,
   "GPU_Hours": 0,
   "Runtime": 7.968111470177776,
   "App_Hours": 254.97956704568884,
   "JobId": "21804",
   "Queue": "q_x86_cn_sim",
   "User": "simforge1",
   "App": "LS-DYNA",
   "JobDescription": "Batch-LS-DYNA",
   "JobName": "/home/export/online3/amd_share/shangruan/bin/dynayaml /home/export/base/nsccwuxi_amd/simforge1/WORK/JOB-OK/56/Wind56a.k single",
   "Cluster": "aip",
   "CPU_Cost": 127.48978352284442,
   "Mem_Cost": 0,
   "GPU_Cost": 0,
   "App_Cost": 1274.8978352284444,
   "StartDate": "2020/12/18",
   "Project": "default"
  },
  {
   "CPU_Hours": 0.026944444444444444,
   "Mem_GB_Hours": 0.015388338300916883,
   "GPU_Hours": 0.026944444444444444,
   "Runtime": 0.026944444444444444,
   "App_Hours": 0.026944444444444444,
   "JobId": "23846",
   "Queue": "local",
   "User": "simforge1",
   "App": "Abaqus",
   "JobDescription": "Abaqus",
   "JobName": "cubevnc",
   "Cluster": "aip",
   "CPU_Cost": 0.013472222222222222,
   "Mem_Cost": 0,
   "GPU_Cost": 0.013472222222222222,
   "App_Cost": 0.13472222222222222,
   "StartDate": "2020/12/29",
   "Project": "default"
  },
  {
   "CPU_Hours": 0,
   "Mem_GB_Hours": 0,
   "GPU_Hours": 0,
   "Runtime": 0,
   "App_Hours": 0,
   "JobId": "20870",
   "Queue": "q_x86_cn_sim",
   "User": "simforge1",
   "App": "LS-DYNA",
   "JobDescription": "Batch-LS-DYNA",
   "JobName": "/home/export/online3/amd_share/shangruan/bin/dynayaml /home/export/base/nsccwuxi_amd/simforge1/WORK/JOB-OK/Wind21/Wind21.k single",
   "Cluster": "aip",
   "CPU_Cost": 0,
   "Mem_Cost": 0,
   "GPU_Cost": 0,
   "App_Cost": 0,
   "StartDate": "2020/12/14",
   "Project": "default"
  },
  {
   "CPU_Hours": 0.017777777777777778,
   "Mem_GB_Hours": 0.00000362396240234375,
   "GPU_Hours": 0,
   "Runtime": 0.0002777777777777778,
   "App_Hours": 0.017777777777777778,
   "JobId": "20858",
   "Queue": "q_x86_cn_sim",
   "User": "simforge1",
   "App": "LS-DYNA",
   "JobDescription": "Batch-LS-DYNA",
   "JobName": "/home/export/online3/amd_share/shangruan/bin/dynayaml /home/export/base/nsccwuxi_amd/simforge1/WORK/JOB-OK/Wind21.k single",
   "Cluster": "aip",
   "CPU_Cost": 0.008888888888888889,
   "Mem_Cost": 0,
   "GPU_Cost": 0,
   "App_Cost": 0.08888888888888889,
   "StartDate": "2020/12/14",
   "Project": "default"
  },
  {
   "CPU_Hours": 0.006666666666666666,
   "Mem_GB_Hours": 0.0000036218431260850694,
   "GPU_Hours": 0,
   "Runtime": 0.0002777777777777778,
   "App_Hours": 0.006666666666666666,
   "JobId": "20862",
   "Queue": "q_x86_cn_sim",
   "User": "simforge1",
   "App": "LS-DYNA",
   "JobDescription": "Batch-LS-DYNA",
   "JobName": "/home/export/online3/amd_share/shangruan/bin/dynayaml /home/export/base/nsccwuxi_amd/simforge1/WORK/JOB-OK/Wind21/Wind21.k single",
   "Cluster": "aip",
   "CPU_Cost": 0.003333333333333333,
   "Mem_Cost": 0,
   "GPU_Cost": 0,
   "App_Cost": 0.03333333333333333,
   "StartDate": "2020/12/14",
   "Project": "default"
  },
  {
   "CPU_Hours": 8.249361315413333,
   "Mem_GB_Hours": 0.0014738470753896161,
   "GPU_Hours": 0,
   "Runtime": 0.12889627055333333,
   "App_Hours": 8.249361315413333,
   "JobId": "22766",
   "Queue": "q_x86_cn_sim",
   "User": "simforge1",
   "App": "Abaqus",
   "JobDescription": "Batch-Abaqus",
   "JobName": "/home/export/online3/amd_share/shangruan/bin/abaqus614 /home/export/base/nsccwuxi_amd/simforge1/WORK/JOB-OK/JOB_24/Job-24_13.inp",
   "Cluster": "aip",
   "CPU_Cost": 4.124680657706667,
   "Mem_Cost": 0,
   "GPU_Cost": 0,
   "App_Cost": 41.24680657706667,
   "StartDate": "2020/12/24",
   "Project": "default"
  },
  {
   "CPU_Hours": 3.7155555555555555,
   "Mem_GB_Hours": 0.0007569652133517795,
   "GPU_Hours": 0,
   "Runtime": 0.058055555555555555,
   "App_Hours": 3.7155555555555555,
   "JobId": "20882",
   "Queue": "q_x86_cn_sim",
   "User": "simforge1",
   "App": "LS-DYNA",
   "JobDescription": "Batch-LS-DYNA",
   "JobName": "/home/export/online3/amd_share/shangruan/bin/dynayaml /home/export/base/nsccwuxi_amd/simforge1/WORK/JOB-OK/Wind21/Wind21.k single",
   "Cluster": "aip",
   "CPU_Cost": 1.8577777777777778,
   "Mem_Cost": 0,
   "GPU_Cost": 0,
   "App_Cost": 18.577777777777776,
   "StartDate": "2020/12/14",
   "Project": "default"
  },
  {
   "CPU_Hours": 257.5733969364,
   "Mem_GB_Hours": 0.055851031312139705,
   "GPU_Hours": 0,
   "Runtime": 8.0491686542625,
   "App_Hours": 257.5733969364,
   "JobId": "22078",
   "Queue": "q_x86_cn_sim",
   "User": "simforge1",
   "App": "LS-DYNA",
   "JobDescription": "8a",
   "JobName": "/home/export/online3/amd_share/shangruan/bin/dynayaml /home/export/base/nsccwuxi_amd/simforge1/WORK/JOB-OK/8/Wind8a.k single",
   "Cluster": "aip",
   "CPU_Cost": 128.7866984682,
   "Mem_Cost": 0,
   "GPU_Cost": 0,
   "App_Cost": 1287.8669846819998,
   "StartDate": "2020/12/20",
   "Project": "default"
  },
  {
   "CPU_Hours": 28.674548576286668,
   "Mem_GB_Hours": 0.008935328618186966,
   "GPU_Hours": 0,
   "Runtime": 1.1947728573452778,
   "App_Hours": 28.674548576286668,
   "JobId": "24114",
   "Queue": "q_x86_cn_sim",
   "User": "simforge1",
   "App": "LS-DYNA",
   "JobDescription": "Batch-LS-DYNA",
   "JobName": "/home/export/online3/amd_share/shangruan/bin/dynayaml /home/export/base/nsccwuxi_amd/simforge1/WORK/JOB-OK/2205_opt1/22.05-you.k single",
   "Cluster": "aip",
   "CPU_Cost": 14.337274288143334,
   "Mem_Cost": 0,
   "GPU_Cost": 0,
   "App_Cost": 143.37274288143334,
   "StartDate": "2020/12/30",
   "Project": "default"
  },
  {
   "CPU_Hours": 0.4804683116666667,
   "Mem_GB_Hours": 0.00009721283190555042,
   "GPU_Hours": 0,
   "Runtime": 0.010009756493055556,
   "App_Hours": 0.4804683116666667,
   "JobId": "21082",
   "Queue": "q_x86_cn_sim",
   "User": "simforge1",
   "App": "LS-DYNA",
   "JobDescription": "Batch-LS-DYNA",
   "JobName": "/home/export/online3/amd_share/shangruan/bin/dynayaml /home/export/base/nsccwuxi_amd/simforge1/WORK/JOB-OK/Tension_Plate_Fatigue_case1.k single",
   "Cluster": "aip",
   "CPU_Cost": 0.24023415583333335,
   "Mem_Cost": 0,
   "GPU_Cost": 0,
   "App_Cost": 2.402341558333333,
   "StartDate": "2020/12/15",
   "Project": "default"
  },
  {
   "CPU_Hours": 0.12945319273444444,
   "Mem_GB_Hours": 0.10609361202589086,
   "GPU_Hours": 0.12945319273444444,
   "Runtime": 0.12945319273444444,
   "App_Hours": 0.12945319273444444,
   "JobId": "22738",
   "Queue": "local",
   "User": "simforge1",
   "App": "Abaqus614",
   "JobDescription": "Abaqus614",
   "JobName": "cubevnc",
   "Cluster": "aip",
   "CPU_Cost": 0.06472659636722222,
   "Mem_Cost": 0,
   "GPU_Cost": 0.06472659636722222,
   "App_Cost": 0,
   "StartDate": "2020/12/24",
   "Project": "default"
  },
  {
   "CPU_Hours": 79.93180786135112,
   "Mem_GB_Hours": 0.008887198380279574,
   "GPU_Hours": 0,
   "Runtime": 1.2489344978336112,
   "App_Hours": 79.93180786135112,
   "JobId": "22735",
   "Queue": "q_x86_cn_sim",
   "User": "simforge1",
   "App": "Abaqus",
   "JobDescription": "Batch-Abaqus",
   "JobName": "/home/export/online3/amd_share/shangruan/bin/abaqus614 /home/export/base/nsccwuxi_amd/simforge1/WORK/JOB-OK/JOB_24/Job-24_job.inp",
   "Cluster": "aip",
   "CPU_Cost": 39.96590393067556,
   "Mem_Cost": 0,
   "GPU_Cost": 0,
   "App_Cost": 399.6590393067556,
   "StartDate": "2020/12/24",
   "Project": "default"
  },
  {
   "CPU_Hours": 0.06222222222222222,
   "Mem_GB_Hours": 0.000025019115871853296,
   "GPU_Hours": 0,
   "Runtime": 0.0019444444444444444,
   "App_Hours": 0.06222222222222222,
   "JobId": "21801",
   "Queue": "q_x86_cn_sim",
   "User": "simforge1",
   "App": "Abaqus",
   "JobDescription": "Batch-Abaqus",
   "JobName": "/home/export/online3/amd_share/shangruan/bin/abaqus614 /home/export/base/nsccwuxi_amd/simforge1/WORK/JOB-OK/Job-36.inp",
   "Cluster": "aip",
   "CPU_Cost": 0.03111111111111111,
   "Mem_Cost": 0,
   "GPU_Cost": 0,
   "App_Cost": 0.3111111111111111,
   "StartDate": "2020/12/18",
   "Project": "default"
  },
  {
   "CPU_Hours": 29.31451961210666,
   "Mem_GB_Hours": 0.008684208512750938,
   "GPU_Hours": 0,
   "Runtime": 1.2214383171711112,
   "App_Hours": 29.31451961210666,
   "JobId": "24104",
   "Queue": "q_x86_cn_sim",
   "User": "simforge1",
   "App": "LS-DYNA",
   "JobDescription": "Batch-LS-DYNA",
   "JobName": "/home/export/online3/amd_share/shangruan/bin/dynayaml /home/export/base/nsccwuxi_amd/simforge1/WORK/JOB-OK/2205_base/22.05-yuan.k single",
   "Cluster": "aip",
   "CPU_Cost": 14.65725980605333,
   "Mem_Cost": 0,
   "GPU_Cost": 0,
   "App_Cost": 146.57259806053332,
   "StartDate": "2020/12/30",
   "Project": "default"
  },
  {
   "CPU_Hours": 37.30798721936888,
   "Mem_GB_Hours": 0.008172786349835646,
   "GPU_Hours": 0,
   "Runtime": 1.1658746006052776,
   "App_Hours": 37.30798721936888,
   "JobId": "20886",
   "Queue": "q_x86_cn_sim",
   "User": "simforge1",
   "App": "LS-DYNA",
   "JobDescription": "Batch-LS-DYNA",
   "JobName": "/home/export/online3/amd_share/shangruan/bin/dynayaml /home/export/base/nsccwuxi_amd/simforge1/WORK/JOB-OK/Wind21.k single",
   "Cluster": "aip",
   "CPU_Cost": 18.65399360968444,
   "Mem_Cost": 0,
   "GPU_Cost": 0,
   "App_Cost": 186.53993609684446,
   "StartDate": "2020/12/14",
   "Project": "default"
  },
  {
   "CPU_Hours": 39.281320552702226,
   "Mem_GB_Hours": 0.008744361829474866,
   "GPU_Hours": 0,
   "Runtime": 1.2275412672719446,
   "App_Hours": 39.281320552702226,
   "JobId": "20885",
   "Queue": "q_x86_cn_sim",
   "User": "simforge1",
   "App": "LS-DYNA",
   "JobDescription": "Batch-LS-DYNA",
   "JobName": "/home/export/online3/amd_share/shangruan/bin/dynayaml /home/export/base/nsccwuxi_amd/simforge1/WORK/JOB-OK/Wind56/Wind56.k single",
   "Cluster": "aip",
   "CPU_Cost": 19.640660276351113,
   "Mem_Cost": 0,
   "GPU_Cost": 0,
   "App_Cost": 196.4066027635111,
   "StartDate": "2020/12/14",
   "Project": "default"
  },
  {
   "CPU_Hours": 1043.823907898365,
   "Mem_GB_Hours": 0.11441958220290231,
   "GPU_Hours": 0,
   "Runtime": 16.309748560911952,
   "App_Hours": 1043.823907898365,
   "JobId": "19107",
   "Queue": "q_x86_cn_sim",
   "User": "simforge1",
   "App": "Abaqus",
   "JobDescription": "Batch-Abaqus",
   "JobName": "/home/export/online3/amd_share/shangruan/bin/abaqus614 /home/export/base/nsccwuxi_amd/simforge1/WORK/JOB-OK/Job-36.inp",
   "Cluster": "aip",
   "CPU_Cost": 521.9119539491825,
   "Mem_Cost": 0,
   "GPU_Cost": 0,
   "App_Cost": 5219.119539491821,
   "StartDate": "2020/12/01",
   "Project": "default"
  },
  {
   "CPU_Hours": 0.017777777777777778,
   "Mem_GB_Hours": 0.0000036186642116970485,
   "GPU_Hours": 0,
   "Runtime": 0.0002777777777777778,
   "App_Hours": 0.017777777777777778,
   "JobId": "20865",
   "Queue": "q_x86_cn_sim",
   "User": "simforge1",
   "App": "LS-DYNA",
   "JobDescription": "Batch-LS-DYNA",
   "JobName": "/home/export/online3/amd_share/shangruan/bin/dynayaml /home/export/base/nsccwuxi_amd/simforge1/WORK/JOB-OK/Wind56/Wind56.k single",
   "Cluster": "aip",
   "CPU_Cost": 0.008888888888888889,
   "Mem_Cost": 0,
   "GPU_Cost": 0,
   "App_Cost": 0.08888888888888889,
   "StartDate": "2020/12/14",
   "Project": "default"
  },
  {
   "CPU_Hours": 46.222477603646674,
   "Mem_GB_Hours": 0.013254134991864352,
   "GPU_Hours": 0,
   "Runtime": 1.925936566818611,
   "App_Hours": 46.222477603646674,
   "JobId": "24256",
   "Queue": "q_x86_cn_sim",
   "User": "simforge1",
   "App": "LS-DYNA",
   "JobDescription": "Batch-LS-DYNA",
   "JobName": "/home/export/online3/amd_share/shangruan/bin/dynayaml /home/export/base/nsccwuxi_amd/simforge1/WORK/JOB-OK/2205_form_1/2205_form.k single",
   "Cluster": "aip",
   "CPU_Cost": 23.111238801823337,
   "Mem_Cost": 0,
   "GPU_Cost": 0,
   "App_Cost": 231.11238801823333,
   "StartDate": "2020/12/31",
   "Project": "default"
  },
  {
   "CPU_Hours": 0,
   "Mem_GB_Hours": 0,
   "GPU_Hours": 0,
   "Runtime": 0,
   "App_Hours": 0,
   "JobId": "20857",
   "Queue": "q_x86_cn_sim",
   "User": "simforge1",
   "App": "LS-DYNA",
   "JobDescription": "Batch-LS-DYNA",
   "JobName": "/home/export/online3/amd_share/shangruan/bin/dynayaml /home/export/base/nsccwuxi_amd/simforge1/WORK/JOB-OK/Wind21.k single",
   "Cluster": "aip",
   "CPU_Cost": 0,
   "Mem_Cost": 0,
   "GPU_Cost": 0,
   "App_Cost": 0,
   "StartDate": "2020/12/14",
   "Project": "default"
  },
  {
   "CPU_Hours": 0.9400000000000001,
   "Mem_GB_Hours": 0.0005042552947998047,
   "GPU_Hours": 0,
   "Runtime": 0.03916666666666667,
   "App_Hours": 0.9400000000000001,
   "JobId": "21800",
   "Queue": "q_x86_cn_sim",
   "User": "simforge1",
   "App": "LS-DYNA",
   "JobDescription": "Batch-LS-DYNA",
   "JobName": "/home/export/online3/amd_share/shangruan/bin/dynayaml /home/export/base/nsccwuxi_amd/simforge1/WORK/JOB-OK/56/Wind56a.k single",
   "Cluster": "aip",
   "CPU_Cost": 0.47000000000000003,
   "Mem_Cost": 0,
   "GPU_Cost": 0,
   "App_Cost": 4.7,
   "StartDate": "2020/12/18",
   "Project": "default"
  },
  {
   "CPU_Hours": 24.002515054833882,
   "Mem_GB_Hours": 20.687598524376646,
   "GPU_Hours": 24.002515054833882,
   "Runtime": 24.002515054833882,
   "App_Hours": 24.002515054833882,
   "JobId": "22752",
   "Queue": "local",
   "User": "simforge1",
   "App": "Abaqus614",
   "JobDescription": "Abaqus614",
   "JobName": "cubevnc",
   "Cluster": "aip",
   "CPU_Cost": 12.001257527416941,
   "Mem_Cost": 0,
   "GPU_Cost": 12.001257527416941,
   "App_Cost": 0,
   "StartDate": "2020/12/24",
   "Project": "default"
  },
  {
   "CPU_Hours": 0.017777777777777778,
   "Mem_GB_Hours": 0.00000362290276421441,
   "GPU_Hours": 0,
   "Runtime": 0.0002777777777777778,
   "App_Hours": 0.017777777777777778,
   "JobId": "20874",
   "Queue": "q_x86_cn_sim",
   "User": "simforge1",
   "App": "LS-DYNA",
   "JobDescription": "Batch-LS-DYNA",
   "JobName": "/home/export/online3/amd_share/shangruan/bin/dynayaml /home/export/base/nsccwuxi_amd/simforge1/WORK/JOB-OK/Wind21/Wind21.k single",
   "Cluster": "aip",
   "CPU_Cost": 0.008888888888888889,
   "Mem_Cost": 0,
   "GPU_Cost": 0,
   "App_Cost": 0.08888888888888889,
   "StartDate": "2020/12/14",
   "Project": "default"
  },
  {
   "CPU_Hours": 2.1666666666666665,
   "Mem_GB_Hours": 0.0014598369598388672,
   "GPU_Hours": 0,
   "Runtime": 0.09027777777777778,
   "App_Hours": 2.1666666666666665,
   "JobId": "24246",
   "Queue": "q_x86_cn_sim",
   "User": "simforge1",
   "App": "LS-DYNA",
   "JobDescription": "Batch-LS-DYNA",
   "JobName": "/home/export/online3/amd_share/shangruan/bin/dynayaml /home/export/base/nsccwuxi_amd/simforge1/WORK/JOB-OK/1531_form_1/1531_form.k single",
   "Cluster": "aip",
   "CPU_Cost": 1.0833333333333333,
   "Mem_Cost": 0,
   "GPU_Cost": 0,
   "App_Cost": 10.833333333333332,
   "StartDate": "2020/12/31",
   "Project": "default"
  },
  {
   "CPU_Hours": 0.013333333333333334,
   "Mem_GB_Hours": 0.0039459228515625,
   "GPU_Hours": 0.013333333333333334,
   "Runtime": 0.013333333333333334,
   "App_Hours": 0.013333333333333334,
   "JobId": "20871",
   "Queue": "local",
   "User": "simforge1",
   "App": "LSPrePost",
   "JobDescription": "LSPrePost",
   "JobName": "cubevnc",
   "Cluster": "aip",
   "CPU_Cost": 0.006666666666666667,
   "Mem_Cost": 0,
   "GPU_Cost": 0.006666666666666667,
   "App_Cost": 0,
   "StartDate": "2020/12/14",
   "Project": "default"
  },
  {
   "CPU_Hours": 1.8138188531377777,
   "Mem_GB_Hours": 0.00029012145030168,
   "GPU_Hours": 0,
   "Runtime": 0.028340919580277776,
   "App_Hours": 1.8138188531377777,
   "JobId": "23844",
   "Queue": "q_x86_cn_sim",
   "User": "simforge1",
   "App": "Abaqus",
   "JobDescription": "Batch-Abaqus",
   "JobName": "/home/export/online3/amd_share/shangruan/bin/abaqus614 /home/export/base/nsccwuxi_amd/simforge1/WORK/JOB-OK/Job-6.inp",
   "Cluster": "aip",
   "CPU_Cost": 0.9069094265688888,
   "Mem_Cost": 0,
   "GPU_Cost": 0,
   "App_Cost": 9.06909426568889,
   "StartDate": "2020/12/29",
   "Project": "default"
  },
  {
   "CPU_Hours": 0.017777777777777778,
   "Mem_GB_Hours": 0.0000036207834879557293,
   "GPU_Hours": 0,
   "Runtime": 0.0002777777777777778,
   "App_Hours": 0.017777777777777778,
   "JobId": "20867",
   "Queue": "q_x86_cn_sim",
   "User": "simforge1",
   "App": "LS-DYNA",
   "JobDescription": "Batch-LS-DYNA",
   "JobName": "/home/export/online3/amd_share/shangruan/bin/dynayaml /home/export/base/nsccwuxi_amd/simforge1/WORK/JOB-OK/wind8/Wind8.k single",
   "Cluster": "aip",
   "CPU_Cost": 0.008888888888888889,
   "Mem_Cost": 0,
   "GPU_Cost": 0,
   "App_Cost": 0.08888888888888889,
   "StartDate": "2020/12/14",
   "Project": "default"
  },
  {
   "CPU_Hours": 41.77965359312,
   "Mem_GB_Hours": 0.004722873996884865,
   "GPU_Hours": 0,
   "Runtime": 0.6528070873925,
   "App_Hours": 41.77965359312,
   "JobId": "22747",
   "Queue": "q_x86_cn_sim",
   "User": "simforge1",
   "App": "Abaqus",
   "JobDescription": "Batch-Abaqus",
   "JobName": "/home/export/online3/amd_share/shangruan/bin/abaqus614 /home/export/base/nsccwuxi_amd/simforge1/WORK/JOB-OK/JOB_24/Job-24_11.inp",
   "Cluster": "aip",
   "CPU_Cost": 20.88982679656,
   "Mem_Cost": 0,
   "GPU_Cost": 0,
   "App_Cost": 208.8982679656,
   "StartDate": "2020/12/24",
   "Project": "default"
  },
  {
   "CPU_Hours": 0.03638888888888889,
   "Mem_GB_Hours": 0.01982341024610731,
   "GPU_Hours": 0.03638888888888889,
   "Runtime": 0.03638888888888889,
   "App_Hours": 0.03638888888888889,
   "JobId": "22685",
   "Queue": "local",
   "User": "simforge1",
   "App": "Abaqus614",
   "JobDescription": "Abaqus614",
   "JobName": "cubevnc",
   "Cluster": "aip",
   "CPU_Cost": 0.018194444444444444,
   "Mem_Cost": 0,
   "GPU_Cost": 0.018194444444444444,
   "App_Cost": 0,
   "StartDate": "2020/12/23",
   "Project": "default"
  },
  {
   "CPU_Hours": 0.017777777777777778,
   "Mem_GB_Hours": 0.00000362290276421441,
   "GPU_Hours": 0,
   "Runtime": 0.0002777777777777778,
   "App_Hours": 0.017777777777777778,
   "JobId": "20876",
   "Queue": "q_x86_cn_sim",
   "User": "simforge1",
   "App": "LS-DYNA",
   "JobDescription": "Batch-LS-DYNA",
   "JobName": "/home/export/online3/amd_share/shangruan/bin/dynayaml /home/export/base/nsccwuxi_amd/simforge1/WORK/JOB-OK/Wind21/Wind21.k single",
   "Cluster": "aip",
   "CPU_Cost": 0.008888888888888889,
   "Mem_Cost": 0,
   "GPU_Cost": 0,
   "App_Cost": 0.08888888888888889,
   "StartDate": "2020/12/14",
   "Project": "default"
  },
  {
   "CPU_Hours": 0.017777777777777778,
   "Mem_GB_Hours": 0.0000036186642116970485,
   "GPU_Hours": 0,
   "Runtime": 0.0002777777777777778,
   "App_Hours": 0.017777777777777778,
   "JobId": "20854",
   "Queue": "q_x86_cn_sim",
   "User": "simforge1",
   "App": "LS-DYNA",
   "JobDescription": "Batch-LS-DYNA",
   "JobName": "/home/export/online3/amd_share/shangruan/bin/dynayaml /home/export/base/nsccwuxi_amd/simforge1/WORK/JOB-OK/Wind21.k single",
   "Cluster": "aip",
   "CPU_Cost": 0.008888888888888889,
   "Mem_Cost": 0,
   "GPU_Cost": 0,
   "App_Cost": 0.08888888888888889,
   "StartDate": "2020/12/14",
   "Project": "default"
  },
  {
   "CPU_Hours": 42.182198621759994,
   "Mem_GB_Hours": 0.012910776093449554,
   "GPU_Hours": 0,
   "Runtime": 1.7575916092400001,
   "App_Hours": 42.182198621759994,
   "JobId": "24257",
   "Queue": "q_x86_cn_sim",
   "User": "simforge1",
   "App": "LS-DYNA",
   "JobDescription": "Batch-LS-DYNA",
   "JobName": "/home/export/online3/amd_share/shangruan/bin/dynayaml /home/export/base/nsccwuxi_amd/simforge1/WORK/JOB-OK/1531_form_1/1531_form.k single",
   "Cluster": "aip",
   "CPU_Cost": 21.091099310879997,
   "Mem_Cost": 0,
   "GPU_Cost": 0,
   "App_Cost": 210.9109931088,
   "StartDate": "2020/12/31",
   "Project": "default"
  },
  {
   "CPU_Hours": 5.884444444444444,
   "Mem_GB_Hours": 0.0012195237477620443,
   "GPU_Hours": 0,
   "Runtime": 0.09194444444444444,
   "App_Hours": 5.884444444444444,
   "JobId": "22733",
   "Queue": "q_x86_cn_sim",
   "User": "simforge1",
   "App": "Abaqus",
   "JobDescription": "Batch-Abaqus",
   "JobName": "/home/export/online3/amd_share/shangruan/bin/abaqus614 /home/export/base/nsccwuxi_amd/simforge1/WORK/JOB-OK/aba/Job-24_job.inp",
   "Cluster": "aip",
   "CPU_Cost": 2.942222222222222,
   "Mem_Cost": 0,
   "GPU_Cost": 0,
   "App_Cost": 29.42222222222222,
   "StartDate": "2020/12/24",
   "Project": "default"
  },
  {
   "CPU_Hours": 27.680615788426667,
   "Mem_GB_Hours": 0.003539394117019517,
   "GPU_Hours": 0,
   "Runtime": 0.4325096216941667,
   "App_Hours": 27.680615788426667,
   "JobId": "19104",
   "Queue": "q_x86_cn_sim",
   "User": "simforge1",
   "App": "Abaqus",
   "JobDescription": "Batch-Abaqus",
   "JobName": "/home/export/online3/amd_share/shangruan/bin/abaqus614 /home/export/base/nsccwuxi_amd/simforge1/WORK/JOB-OK/Job-35.inp",
   "Cluster": "aip",
   "CPU_Cost": 13.840307894213334,
   "Mem_Cost": 0,
   "GPU_Cost": 0,
   "App_Cost": 138.40307894213333,
   "StartDate": "2020/12/01",
   "Project": "default"
  },
  {
   "CPU_Hours": 0.017777777777777778,
   "Mem_GB_Hours": 0.0000036207834879557293,
   "GPU_Hours": 0,
   "Runtime": 0.0002777777777777778,
   "App_Hours": 0.017777777777777778,
   "JobId": "20881",
   "Queue": "q_x86_cn_sim",
   "User": "simforge1",
   "App": "LS-DYNA",
   "JobDescription": "Batch-LS-DYNA",
   "JobName": "/home/export/online3/amd_share/shangruan/bin/dynayaml /home/export/base/nsccwuxi_amd/simforge1/WORK/JOB-OK/Wind21.k single",
   "Cluster": "aip",
   "CPU_Cost": 0.008888888888888889,
   "Mem_Cost": 0,
   "GPU_Cost": 0,
   "App_Cost": 0.08888888888888889,
   "StartDate": "2020/12/14",
   "Project": "default"
  },
  {
   "CPU_Hours": 0.017777777777777778,
   "Mem_GB_Hours": 0.0000036218431260850694,
   "GPU_Hours": 0,
   "Runtime": 0.0002777777777777778,
   "App_Hours": 0.017777777777777778,
   "JobId": "20869",
   "Queue": "q_x86_cn_sim",
   "User": "simforge1",
   "App": "LS-DYNA",
   "JobDescription": "Batch-LS-DYNA",
   "JobName": "/home/export/online3/amd_share/shangruan/bin/dynayaml /home/export/base/nsccwuxi_amd/simforge1/WORK/JOB-OK/wind8/Wind8.k single",
   "Cluster": "aip",
   "CPU_Cost": 0.008888888888888889,
   "Mem_Cost": 0,
   "GPU_Cost": 0,
   "App_Cost": 0.08888888888888889,
   "StartDate": "2020/12/14",
   "Project": "default"
  },
  {
   "CPU_Hours": 0.017777777777777778,
   "Mem_GB_Hours": 0.0000036207834879557293,
   "GPU_Hours": 0,
   "Runtime": 0.0002777777777777778,
   "App_Hours": 0.017777777777777778,
   "JobId": "20855",
   "Queue": "q_x86_cn_sim",
   "User": "simforge1",
   "App": "LS-DYNA",
   "JobDescription": "Batch-LS-DYNA",
   "JobName": "/home/export/online3/amd_share/shangruan/bin/dynayaml /home/export/base/nsccwuxi_amd/simforge1/WORK/JOB-OK/Wind21.k single",
   "Cluster": "aip",
   "CPU_Cost": 0.008888888888888889,
   "Mem_Cost": 0,
   "GPU_Cost": 0,
   "App_Cost": 0.08888888888888889,
   "StartDate": "2020/12/14",
   "Project": "default"
  },
  {
   "CPU_Hours": 54.601641536559995,
   "Mem_GB_Hours": 0.016943956700782952,
   "GPU_Hours": 0,
   "Runtime": 2.2750683973566668,
   "App_Hours": 54.601641536559995,
   "JobId": "22421",
   "Queue": "q_x86_cn_sim",
   "User": "simforge1",
   "App": "LS-DYNA",
   "JobDescription": "Batch-LS-DYNA",
   "JobName": "/home/export/online3/amd_share/shangruan/bin/dynayaml /home/export/base/nsccwuxi_amd/simforge1/WORK/JOB-OK/TEST/TEST_3.k single",
   "Cluster": "aip",
   "CPU_Cost": 27.300820768279998,
   "Mem_Cost": 0,
   "GPU_Cost": 0,
   "App_Cost": 273.0082076828,
   "StartDate": "2020/12/22",
   "Project": "default"
  },
  {
   "CPU_Hours": 41.94218086131999,
   "Mem_GB_Hours": 0.012721285093036222,
   "GPU_Hours": 0,
   "Runtime": 1.7475908692216664,
   "App_Hours": 41.94218086131999,
   "JobId": "24234",
   "Queue": "q_x86_cn_sim",
   "User": "simforge1",
   "App": "LS-DYNA",
   "JobDescription": "Batch-LS-DYNA",
   "JobName": "/home/export/online3/amd_share/shangruan/bin/dynayaml /home/export/base/nsccwuxi_amd/simforge1/WORK/JOB-OK/1531_base_0p3/1531-yuan.k single",
   "Cluster": "aip",
   "CPU_Cost": 20.971090430659995,
   "Mem_Cost": 0,
   "GPU_Cost": 0,
   "App_Cost": 209.71090430659999,
   "StartDate": "2020/12/31",
   "Project": "default"
  },
  {
   "CPU_Hours": 367.9985835065778,
   "Mem_GB_Hours": 0.03970741265892343,
   "GPU_Hours": 0,
   "Runtime": 5.749977867290278,
   "App_Hours": 367.9985835065778,
   "JobId": "22179",
   "Queue": "q_x86_cn_sim",
   "User": "simforge1",
   "App": "LS-DYNA",
   "JobDescription": "Batch-LS-DYNA",
   "JobName": "/home/export/online3/amd_share/shangruan/bin/dynayaml /home/export/base/nsccwuxi_amd/simforge1/WORK/JOB-OK/111/1221_OK.k single",
   "Cluster": "aip",
   "CPU_Cost": 183.9992917532889,
   "Mem_Cost": 0,
   "GPU_Cost": 0,
   "App_Cost": 1839.9929175328887,
   "StartDate": "2020/12/21",
   "Project": "default"
  },
  {
   "CPU_Hours": 0.017777777777777778,
   "Mem_GB_Hours": 0.000003619723849826389,
   "GPU_Hours": 0,
   "Runtime": 0.0002777777777777778,
   "App_Hours": 0.017777777777777778,
   "JobId": "20856",
   "Queue": "q_x86_cn_sim",
   "User": "simforge1",
   "App": "LS-DYNA",
   "JobDescription": "Batch-LS-DYNA",
   "JobName": "/home/export/online3/amd_share/shangruan/bin/dynayaml /home/export/base/nsccwuxi_amd/simforge1/WORK/JOB-OK/Wind21.k single",
   "Cluster": "aip",
   "CPU_Cost": 0.008888888888888889,
   "Mem_Cost": 0,
   "GPU_Cost": 0,
   "App_Cost": 0.08888888888888889,
   "StartDate": "2020/12/14",
   "Project": "default"
  },
  {
   "CPU_Hours": 0.017777777777777778,
   "Mem_GB_Hours": 0.00000362396240234375,
   "GPU_Hours": 0,
   "Runtime": 0.0002777777777777778,
   "App_Hours": 0.017777777777777778,
   "JobId": "20863",
   "Queue": "q_x86_cn_sim",
   "User": "simforge1",
   "App": "LS-DYNA",
   "JobDescription": "Batch-LS-DYNA",
   "JobName": "/home/export/online3/amd_share/shangruan/bin/dynayaml /home/export/base/nsccwuxi_amd/simforge1/WORK/JOB-OK/Wind21/Wind21.k single",
   "Cluster": "aip",
   "CPU_Cost": 0.008888888888888889,
   "Mem_Cost": 0,
   "GPU_Cost": 0,
   "App_Cost": 0.08888888888888889,
   "StartDate": "2020/12/14",
   "Project": "default"
  },
  {
   "CPU_Hours": 28.754509332306668,
   "Mem_GB_Hours": 0.008951324938585851,
   "GPU_Hours": 0,
   "Runtime": 1.1981045555127778,
   "App_Hours": 28.754509332306668,
   "JobId": "24101",
   "Queue": "q_x86_cn_sim",
   "User": "simforge1",
   "App": "LS-DYNA",
   "JobDescription": "Batch-LS-DYNA",
   "JobName": "/home/export/online3/amd_share/shangruan/bin/dynayaml /home/export/base/nsccwuxi_amd/simforge1/WORK/JOB-OK/1531_base/1531-yuan.k single",
   "Cluster": "aip",
   "CPU_Cost": 14.377254666153334,
   "Mem_Cost": 0,
   "GPU_Cost": 0,
   "App_Cost": 143.77254666153334,
   "StartDate": "2020/12/30",
   "Project": "default"
  },
  {
   "CPU_Hours": 23.77423721943333,
   "Mem_GB_Hours": 0.008138936267051885,
   "GPU_Hours": 0,
   "Runtime": 0.9905932174763888,
   "App_Hours": 23.77423721943333,
   "JobId": "20839",
   "Queue": "q_x86_expr",
   "User": "simforge1",
   "App": "LS-DYNA",
   "JobDescription": "Batch-LS-DYNA",
   "JobName": "/home/export/online3/amd_share/shangruan/bin/dynayaml /home/export/base/nsccwuxi_amd/simforge1/WORK/JOB-OK/Wind8.k single",
   "Cluster": "aip",
   "CPU_Cost": 11.887118609716666,
   "Mem_Cost": 0,
   "GPU_Cost": 0,
   "App_Cost": 118.87118609716667,
   "StartDate": "2020/12/14",
   "Project": "default"
  },
  {
   "CPU_Hours": 1.3933333333333333,
   "Mem_GB_Hours": 0.0007474422454833984,
   "GPU_Hours": 0,
   "Runtime": 0.058055555555555555,
   "App_Hours": 1.3933333333333333,
   "JobId": "22073",
   "Queue": "q_x86_cn_sim",
   "User": "simforge1",
   "App": "LS-DYNA",
   "JobDescription": "8a",
   "JobName": "/home/export/online3/amd_share/shangruan/bin/dynayaml /home/export/base/nsccwuxi_amd/simforge1/WORK/JOB-OK/8/Wind8a.k single",
   "Cluster": "aip",
   "CPU_Cost": 0.6966666666666667,
   "Mem_Cost": 0,
   "GPU_Cost": 0,
   "App_Cost": 6.966666666666667,
   "StartDate": "2020/12/20",
   "Project": "default"
  },
  {
   "CPU_Hours": 0.017777777777777778,
   "Mem_GB_Hours": 0.000003619723849826389,
   "GPU_Hours": 0,
   "Runtime": 0.0002777777777777778,
   "App_Hours": 0.017777777777777778,
   "JobId": "20864",
   "Queue": "q_x86_cn_sim",
   "User": "simforge1",
   "App": "LS-DYNA",
   "JobDescription": "Batch-LS-DYNA",
   "JobName": "/home/export/online3/amd_share/shangruan/bin/dynayaml /home/export/base/nsccwuxi_amd/simforge1/WORK/JOB-OK/Wind56/Wind56.k single",
   "Cluster": "aip",
   "CPU_Cost": 0.008888888888888889,
   "Mem_Cost": 0,
   "GPU_Cost": 0,
   "App_Cost": 0.08888888888888889,
   "StartDate": "2020/12/14",
   "Project": "default"
  },
  {
   "CPU_Hours": 32.774373827653335,
   "Mem_GB_Hours": 0.01024745559871339,
   "GPU_Hours": 0,
   "Runtime": 1.3655989094855554,
   "App_Hours": 32.774373827653335,
   "JobId": "20907",
   "Queue": "q_x86_cn_sim",
   "User": "simforge1",
   "App": "LS-DYNA",
   "JobDescription": "Batch-LS-DYNA",
   "JobName": "/home/export/online3/amd_share/shangruan/bin/dynayaml /home/export/base/nsccwuxi_amd/simforge1/WORK/JOB-OK/Wind21/Wind21.k single",
   "Cluster": "aip",
   "CPU_Cost": 16.387186913826667,
   "Mem_Cost": 0,
   "GPU_Cost": 0,
   "App_Cost": 163.87186913826665,
   "StartDate": "2020/12/14",
   "Project": "default"
  },
  {
   "CPU_Hours": 0.017777777777777778,
   "Mem_GB_Hours": 0.0000036207834879557293,
   "GPU_Hours": 0,
   "Runtime": 0.0002777777777777778,
   "App_Hours": 0.017777777777777778,
   "JobId": "20880",
   "Queue": "q_x86_cn_sim",
   "User": "simforge1",
   "App": "LS-DYNA",
   "JobDescription": "Batch-LS-DYNA",
   "JobName": "/home/export/online3/amd_share/shangruan/bin/dynayaml /home/export/base/nsccwuxi_amd/simforge1/WORK/JOB-OK/Wind21/Wind21.k single",
   "Cluster": "aip",
   "CPU_Cost": 0.008888888888888889,
   "Mem_Cost": 0,
   "GPU_Cost": 0,
   "App_Cost": 0.08888888888888889,
   "StartDate": "2020/12/14",
   "Project": "default"
  },
  {
   "CPU_Hours": 0,
   "Mem_GB_Hours": 0,
   "GPU_Hours": 0,
   "Runtime": 0,
   "App_Hours": 0,
   "JobId": "20868",
   "Queue": "q_x86_cn_sim",
   "User": "simforge1",
   "App": "LS-DYNA",
   "JobDescription": "Batch-LS-DYNA",
   "JobName": "/home/export/online3/amd_share/shangruan/bin/dynayaml /home/export/base/nsccwuxi_amd/simforge1/WORK/JOB-OK/wind8/Wind8.k single",
   "Cluster": "aip",
   "CPU_Cost": 0,
   "Mem_Cost": 0,
   "GPU_Cost": 0,
   "App_Cost": 0,
   "StartDate": "2020/12/14",
   "Project": "default"
  },
  {
   "CPU_Hours": 0.3652621287511111,
   "Mem_GB_Hours": 0.12455701324474447,
   "GPU_Hours": 0.3652621287511111,
   "Runtime": 0.3652621287511111,
   "App_Hours": 0.3652621287511111,
   "JobId": "20847",
   "Queue": "local",
   "User": "simforge1",
   "App": "LSPrePost",
   "JobDescription": "LSPrePost",
   "JobName": "cubevnc",
   "Cluster": "aip",
   "CPU_Cost": 0.18263106437555554,
   "Mem_Cost": 0,
   "GPU_Cost": 0.18263106437555554,
   "App_Cost": 0,
   "StartDate": "2020/12/14",
   "Project": "default"
  },
  {
   "CPU_Hours": 29.40755538592,
   "Mem_GB_Hours": 0.009971954014491986,
   "GPU_Hours": 0,
   "Runtime": 1.2253148077466667,
   "App_Hours": 29.40755538592,
   "JobId": "24107",
   "Queue": "q_x86_cn_sim",
   "User": "simforge1",
   "App": "LS-DYNA",
   "JobDescription": "Batch-LS-DYNA",
   "JobName": "/home/export/online3/amd_share/shangruan/bin/dynayaml /home/export/base/nsccwuxi_amd/simforge1/WORK/JOB-OK/1531_opt1/15.31-you.k single",
   "Cluster": "aip",
   "CPU_Cost": 14.70377769296,
   "Mem_Cost": 0,
   "GPU_Cost": 0,
   "App_Cost": 147.0377769296,
   "StartDate": "2020/12/30",
   "Project": "default"
  },
  {
   "CPU_Hours": 0.17777777777777778,
   "Mem_GB_Hours": 0.00007152557373046875,
   "GPU_Hours": 0,
   "Runtime": 0.005555555555555556,
   "App_Hours": 0.17777777777777778,
   "JobId": "21803",
   "Queue": "q_x86_cn_sim",
   "User": "simforge1",
   "App": "Abaqus",
   "JobDescription": "Batch-Abaqus",
   "JobName": "/home/export/online3/amd_share/shangruan/bin/abaqus614 /home/export/base/nsccwuxi_amd/simforge1/WORK/JOB-OK/Job-36.inp",
   "Cluster": "aip",
   "CPU_Cost": 0.08888888888888889,
   "Mem_Cost": 0,
   "GPU_Cost": 0,
   "App_Cost": 0.888888888888889,
   "StartDate": "2020/12/18",
   "Project": "default"
  },
  {
   "CPU_Hours": 0,
   "Mem_GB_Hours": 0,
   "GPU_Hours": 0,
   "Runtime": 0,
   "App_Hours": 0,
   "JobId": "20866",
   "Queue": "q_x86_cn_sim",
   "User": "simforge1",
   "App": "LS-DYNA",
   "JobDescription": "Batch-LS-DYNA",
   "JobName": "/home/export/online3/amd_share/shangruan/bin/dynayaml /home/export/base/nsccwuxi_amd/simforge1/WORK/JOB-OK/Wind56/Wind56.k single",
   "Cluster": "aip",
   "CPU_Cost": 0,
   "Mem_Cost": 0,
   "GPU_Cost": 0,
   "App_Cost": 0,
   "StartDate": "2020/12/14",
   "Project": "default"
  },
  {
   "CPU_Hours": 45.595087967446666,
   "Mem_GB_Hours": 0.014053004375024443,
   "GPU_Hours": 0,
   "Runtime": 1.8997953319769447,
   "App_Hours": 45.595087967446666,
   "JobId": "24116",
   "Queue": "q_x86_cn_sim",
   "User": "simforge1",
   "App": "LS-DYNA",
   "JobDescription": "Batch-LS-DYNA",
   "JobName": "/home/export/online3/amd_share/shangruan/bin/dynayaml /home/export/base/nsccwuxi_amd/simforge1/WORK/JOB-OK/2205_form/2205_form.k single",
   "Cluster": "aip",
   "CPU_Cost": 22.797543983723333,
   "Mem_Cost": 0,
   "GPU_Cost": 0,
   "App_Cost": 227.97543983723332,
   "StartDate": "2020/12/30",
   "Project": "default"
  },
  {
   "CPU_Hours": 0.035555555555555556,
   "Mem_GB_Hours": 0.00000724580552842882,
   "GPU_Hours": 0,
   "Runtime": 0.0005555555555555556,
   "App_Hours": 0.035555555555555556,
   "JobId": "20879",
   "Queue": "q_x86_cn_sim",
   "User": "simforge1",
   "App": "LS-DYNA",
   "JobDescription": "Batch-LS-DYNA",
   "JobName": "/home/export/online3/amd_share/shangruan/bin/dynayaml /home/export/base/nsccwuxi_amd/simforge1/WORK/JOB-OK/Wind21/Wind21.k single",
   "Cluster": "aip",
   "CPU_Cost": 0.017777777777777778,
   "Mem_Cost": 0,
   "GPU_Cost": 0,
   "App_Cost": 0.17777777777777778,
   "StartDate": "2020/12/14",
   "Project": "default"
  },
  {
   "CPU_Hours": 0,
   "Mem_GB_Hours": 0,
   "GPU_Hours": 0,
   "Runtime": 0,
   "App_Hours": 0,
   "JobId": "20860",
   "Queue": "q_x86_cn_sim",
   "User": "simforge1",
   "App": "LS-DYNA",
   "JobDescription": "Batch-LS-DYNA",
   "JobName": "/home/export/online3/amd_share/shangruan/bin/dynayaml /home/export/base/nsccwuxi_amd/simforge1/WORK/JOB-OK/Wind21/Wind21.k single",
   "Cluster": "aip",
   "CPU_Cost": 0,
   "Mem_Cost": 0,
   "GPU_Cost": 0,
   "App_Cost": 0,
   "StartDate": "2020/12/14",
   "Project": "default"
  },
  {
   "CPU_Hours": 0.017777777777777778,
   "Mem_GB_Hours": 0.0000036207834879557293,
   "GPU_Hours": 0,
   "Runtime": 0.0002777777777777778,
   "App_Hours": 0.017777777777777778,
   "JobId": "20875",
   "Queue": "q_x86_cn_sim",
   "User": "simforge1",
   "App": "LS-DYNA",
   "JobDescription": "Batch-LS-DYNA",
   "JobName": "/home/export/online3/amd_share/shangruan/bin/dynayaml /home/export/base/nsccwuxi_amd/simforge1/WORK/JOB-OK/Wind21/Wind21.k single",
   "Cluster": "aip",
   "CPU_Cost": 0.008888888888888889,
   "Mem_Cost": 0,
   "GPU_Cost": 0,
   "App_Cost": 0.08888888888888889,
   "StartDate": "2020/12/14",
   "Project": "default"
  },
  {
   "CPU_Hours": 261.8227251904,
   "Mem_GB_Hours": 0.05734367166878561,
   "GPU_Hours": 0,
   "Runtime": 8.1819601622,
   "App_Hours": 261.8227251904,
   "JobId": "22074",
   "Queue": "q_x86_cn_sim",
   "User": "simforge1",
   "App": "LS-DYNA",
   "JobDescription": "21a",
   "JobName": "/home/export/online3/amd_share/shangruan/bin/dynayaml /home/export/base/nsccwuxi_amd/simforge1/WORK/JOB-OK/21/Wind21a.k single",
   "Cluster": "aip",
   "CPU_Cost": 130.9113625952,
   "Mem_Cost": 0,
   "GPU_Cost": 0,
   "App_Cost": 1309.1136259519997,
   "StartDate": "2020/12/20",
   "Project": "default"
  }
 ]
}