{
 "User": "simforge1",
 "Queues": "all",
 "Clusters": [
  "aip"
 ],
 "Month": "2021-02",
 "CPU_Hours": 1919.2770548730173,
 "Mem_GB_Hours": 0.3232661182804813,
 "GPU_Hours": 0,
 "App_Cost": 9596.385274365091,
 "CPU_Cost": 959.6385274365086,
 "Mem_Cost": 0,
 "GPU_Cost": 0,
 "Total_Cost": 11707.410296792319,
 "App_Hours": {
  "LS-DYNA": {
   "Hours": 1919.2770548730173,
   "Cost": 9596.385274365091
  }
 },
 "Details": [
  {
   "CPU_Hours": 24.632030437866668,
   "Mem_GB_Hours": 0.006525955592808745,
   "GPU_Hours": 0,
   "Runtime": 0.7697509511833334,
   "App_Hours": 24.632030437866668,
   "JobId": "33560",
   "Queue": "q_x86_cn_sim",
   "User": "simforge1",
   "App": "LS-DYNA",
   "JobDescription": "Batch-LS-DYNA",
   "JobName": "/home/export/online3/amd_share/shangruan/bin/dynayaml /home/export/base/nsccwuxi_amd/simforge1/WORK/JOB-OK/CASE4.k single",
   "Cluster": "aip",
   "CPU_Cost": 12.316015218933334,
   "Mem_Cost": 0,
   "GPU_Cost": 0,
   "App_Cost": 123.16015218933333,
   "StartDate": "2021/02/27",
   "Project": "default"
  },
  {
   "CPU_Hours": 0.21333333333333332,
   "Mem_GB_Hours": 0.00005464341905381944,
   "GPU_Hours": 0,
   "Runtime": 0.0044444444444444444,
   "App_Hours": 0.21333333333333332,
   "JobId": "32631",
   "Queue": "q_x86_cn_sim",
   "User": "simforge1",
   "App": "LS-DYNA",
   "JobDescription": "Batch-LS-DYNA",
   "JobName": "/home/export/online3/amd_share/shangruan/bin/dynayaml /home/export/base/nsccwuxi_amd/simforge1/WORK/JOB-OK/case1.k single",
   "Cluster": "aip",
   "CPU_Cost": 0.10666666666666666,
   "Mem_Cost": 0,
   "GPU_Cost": 0,
   "App_Cost": 1.0666666666666667,
   "StartDate": "2021/02/22",
   "Project": "default"
  },
  {
   "CPU_Hours": 44.37516286572,
   "Mem_GB_Hours": 0.007112544758077718,
   "GPU_Hours": 0,
   "Runtime": 0.9244825597025,
   "App_Hours": 44.37516286572,
   "JobId": "32111",
   "Queue": "q_x86_cn_sim",
   "User": "simforge1",
   "App": "LS-DYNA",
   "JobDescription": "Batch-LS-DYNA",
   "JobName": "/home/export/online3/amd_share/shangruan/bin/dynayaml /home/export/base/nsccwuxi_amd/simforge1/WORK/JOB-OK/case3.k single",
   "Cluster": "aip",
   "CPU_Cost": 22.18758143286,
   "Mem_Cost": 0,
   "GPU_Cost": 0,
   "App_Cost": 221.87581432859997,
   "StartDate": "2021/02/19",
   "Project": "default"
  },
  {
   "CPU_Hours": 23.96553978031111,
   "Mem_GB_Hours": 0.00608546606531582,
   "GPU_Hours": 0,
   "Runtime": 0.7489231181347222,
   "App_Hours": 23.96553978031111,
   "JobId": "33567",
   "Queue": "q_x86_cn_sim",
   "User": "simforge1",
   "App": "LS-DYNA",
   "JobDescription": "Batch-LS-DYNA",
   "JobName": "/home/export/online3/amd_share/shangruan/bin/dynayaml /home/export/base/nsccwuxi_amd/simforge1/WORK/JOB-OK/CASE4.k single",
   "Cluster": "aip",
   "CPU_Cost": 11.982769890155556,
   "Mem_Cost": 0,
   "GPU_Cost": 0,
   "App_Cost": 119.82769890155556,
   "StartDate": "2021/02/27",
   "Project": "default"
  },
  {
   "CPU_Hours": 387.9451031517155,
   "Mem_GB_Hours": 0.08384081364604658,
   "GPU_Hours": 0,
   "Runtime": 12.12328447349111,
   "App_Hours": 387.9451031517155,
   "JobId": "33571",
   "Queue": "q_x86_cn_sim",
   "User": "simforge1",
   "App": "LS-DYNA",
   "JobDescription": "Batch-LS-DYNA",
   "JobName": "/home/export/online3/amd_share/shangruan/bin/dynayaml /home/export/base/nsccwuxi_amd/simforge1/WORK/JOB-OK/CASE4.k single",
   "Cluster": "aip",
   "CPU_Cost": 193.97255157585775,
   "Mem_Cost": 0,
   "GPU_Cost": 0,
   "App_Cost": 1939.7255157585773,
   "StartDate": "2021/02/27",
   "Project": "default"
  },
  {
   "CPU_Hours": 64.00215534942667,
   "Mem_GB_Hours": 0.010045222254475796,
   "GPU_Hours": 0,
   "Runtime": 1.3333782364463889,
   "App_Hours": 64.00215534942667,
   "JobId": "32215",
   "Queue": "q_x86_cn_sim",
   "User": "simforge1",
   "App": "LS-DYNA",
   "JobDescription": "Batch-LS-DYNA",
   "JobName": "/home/export/online3/amd_share/shangruan/bin/dynayaml /home/export/base/nsccwuxi_amd/simforge1/WORK/JOB-OK/case4/case4.k single",
   "Cluster": "aip",
   "CPU_Cost": 32.001077674713336,
   "Mem_Cost": 0,
   "GPU_Cost": 0,
   "App_Cost": 320.0107767471333,
   "StartDate": "2021/02/19",
   "Project": "default"
  },
  {
   "CPU_Hours": 77.46105173191111,
   "Mem_GB_Hours": 0.008985824264711846,
   "GPU_Hours": 0,
   "Runtime": 1.2103289333111111,
   "App_Hours": 77.46105173191111,
   "JobId": "33679",
   "Queue": "q_x86_cn_sim",
   "User": "simforge1",
   "App": "LS-DYNA",
   "JobDescription": "Batch-LS-DYNA",
   "JobName": "/home/export/online3/amd_share/shangruan/bin/dynayaml /home/export/base/nsccwuxi_amd/simforge1/WORK/JOB-OK/case3.k single",
   "Cluster": "aip",
   "CPU_Cost": 38.730525865955556,
   "Mem_Cost": 0,
   "GPU_Cost": 0,
   "App_Cost": 387.3052586595556,
   "StartDate": "2021/02/28",
   "Project": "default"
  },
  {
   "CPU_Hours": 4.613652231564444,
   "Mem_GB_Hours": 0.001200741327624801,
   "GPU_Hours": 0,
   "Runtime": 0.14417663223638888,
   "App_Hours": 4.613652231564444,
   "JobId": "33645",
   "Queue": "q_x86_cn_sim",
   "User": "simforge1",
   "App": "LS-DYNA",
   "JobDescription": "Batch-LS-DYNA",
   "JobName": "/home/export/online3/amd_share/shangruan/bin/dynayaml /home/export/base/nsccwuxi_amd/simforge1/WORK/JOB-OK/case3.k single",
   "Cluster": "aip",
   "CPU_Cost": 2.306826115782222,
   "Mem_Cost": 0,
   "GPU_Cost": 0,
   "App_Cost": 23.06826115782222,
   "StartDate": "2021/02/28",
   "Project": "default"
  },
  {
   "CPU_Hours": 0.28,
   "Mem_GB_Hours": 0.00007171948750813802,
   "GPU_Hours": 0,
   "Runtime": 0.005833333333333334,
   "App_Hours": 0.28,
   "JobId": "32627",
   "Queue": "q_x86_cn_sim",
   "User": "simforge1",
   "App": "LS-DYNA",
   "JobDescription": "Batch-LS-DYNA",
   "JobName": "/home/export/online3/amd_share/shangruan/bin/dynayaml /home/export/base/nsccwuxi_amd/simforge1/WORK/JOB-OK/case4/case1.k single",
   "Cluster": "aip",
   "CPU_Cost": 0.14,
   "Mem_Cost": 0,
   "GPU_Cost": 0,
   "App_Cost": 1.4000000000000001,
   "StartDate": "2021/02/22",
   "Project": "default"
  },
  {
   "CPU_Hours": 34.170273732106665,
   "Mem_GB_Hours": 0.003922724353096191,
   "GPU_Hours": 0,
   "Runtime": 0.5339105270641666,
   "App_Hours": 34.170273732106665,
   "JobId": "32771",
   "Queue": "q_x86_cn_sim",
   "User": "simforge1",
   "App": "LS-DYNA",
   "JobDescription": "Batch-LS-DYNA",
   "JobName": "/home/export/online3/amd_share/shangruan/bin/dynayaml /home/export/base/nsccwuxi_amd/simforge1/WORK/JOB-OK/TC4_MAT98/TC4_MAT98.k single",
   "Cluster": "aip",
   "CPU_Cost": 17.085136866053332,
   "Mem_Cost": 0,
   "GPU_Cost": 0,
   "App_Cost": 170.85136866053332,
   "StartDate": "2021/02/23",
   "Project": "default"
  },
  {
   "CPU_Hours": 116.97819687135997,
   "Mem_GB_Hours": 0.03379150263777915,
   "GPU_Hours": 0,
   "Runtime": 4.874091536306667,
   "App_Hours": 116.97819687135997,
   "JobId": "33033",
   "Queue": "q_x86_cn_sim",
   "User": "simforge1",
   "App": "LS-DYNA",
   "JobDescription": "Batch-LS-DYNA",
   "JobName": "/home/export/online3/amd_share/shangruan/bin/dynayaml /home/export/base/nsccwuxi_amd/simforge1/WORK/JOB-OK/case1.k single",
   "Cluster": "aip",
   "CPU_Cost": 58.489098435679985,
   "Mem_Cost": 0,
   "GPU_Cost": 0,
   "App_Cost": 584.8909843568,
   "StartDate": "2021/02/24",
   "Project": "default"
  },
  {
   "CPU_Hours": 168.64666143461335,
   "Mem_GB_Hours": 0.01843750738220529,
   "GPU_Hours": 0,
   "Runtime": 2.6351040849158336,
   "App_Hours": 168.64666143461335,
   "JobId": "33686",
   "Queue": "q_x86_cn_sim",
   "User": "simforge1",
   "App": "LS-DYNA",
   "JobDescription": "Batch-LS-DYNA",
   "JobName": "/home/export/online3/amd_share/shangruan/bin/dynayaml /home/export/base/nsccwuxi_amd/simforge1/WORK/JOB-OK/case3.k single",
   "Cluster": "aip",
   "CPU_Cost": 84.32333071730667,
   "Mem_Cost": 0,
   "GPU_Cost": 0,
   "App_Cost": 843.2333071730668,
   "StartDate": "2021/02/28",
   "Project": "default"
  },
  {
   "CPU_Hours": 4.0803751804355555,
   "Mem_GB_Hours": 0.0015657815582540097,
   "GPU_Hours": 0,
   "Runtime": 0.1275117243886111,
   "App_Hours": 4.0803751804355555,
   "JobId": "33564",
   "Queue": "q_x86_cn_sim",
   "User": "simforge1",
   "App": "LS-DYNA",
   "JobDescription": "Batch-LS-DYNA",
   "JobName": "/home/export/online3/amd_share/shangruan/bin/dynayaml /home/export/base/nsccwuxi_amd/simforge1/WORK/JOB-OK/CASE41.k single",
   "Cluster": "aip",
   "CPU_Cost": 2.0401875902177777,
   "Mem_Cost": 0,
   "GPU_Cost": 0,
   "App_Cost": 20.40187590217778,
   "StartDate": "2021/02/27",
   "Project": "default"
  },
  {
   "CPU_Hours": 86.20269145484,
   "Mem_GB_Hours": 0.01323976724547948,
   "GPU_Hours": 0,
   "Runtime": 1.7958894053091665,
   "App_Hours": 86.20269145484,
   "JobId": "32205",
   "Queue": "q_x86_cn_sim",
   "User": "simforge1",
   "App": "LS-DYNA",
   "JobDescription": "Batch-LS-DYNA",
   "JobName": "/home/export/online3/amd_share/shangruan/bin/dynayaml /home/export/base/nsccwuxi_amd/simforge1/WORK/JOB-OK/case4//case4.k single",
   "Cluster": "aip",
   "CPU_Cost": 43.10134572742,
   "Mem_Cost": 0,
   "GPU_Cost": 0,
   "App_Cost": 431.0134572742,
   "StartDate": "2021/02/19",
   "Project": "default"
  },
  {
   "CPU_Hours": 38.93473957109333,
   "Mem_GB_Hours": 0.005050439125467605,
   "GPU_Hours": 0,
   "Runtime": 0.6083553057983333,
   "App_Hours": 38.93473957109333,
   "JobId": "33541",
   "Queue": "q_x86_cn_sim",
   "User": "simforge1",
   "App": "LS-DYNA",
   "JobDescription": "Batch-LS-DYNA",
   "JobName": "/home/export/online3/amd_share/shangruan/bin/dynayaml /home/export/base/nsccwuxi_amd/simforge1/WORK/JOB-OK/CASE4.k single",
   "Cluster": "aip",
   "CPU_Cost": 19.467369785546666,
   "Mem_Cost": 0,
   "GPU_Cost": 0,
   "App_Cost": 194.67369785546666,
   "StartDate": "2021/02/27",
   "Project": "default"
  },
  {
   "CPU_Hours": 0.7466666666666667,
   "Mem_GB_Hours": 0.0001442845662434896,
   "GPU_Hours": 0,
   "Runtime": 0.011666666666666667,
   "App_Hours": 0.7466666666666667,
   "JobId": "33030",
   "Queue": "q_x86_cn_sim",
   "User": "simforge1",
   "App": "LS-DYNA",
   "JobDescription": "Batch-LS-DYNA",
   "JobName": "/home/export/online3/amd_share/shangruan/bin/dynayaml /home/export/base/nsccwuxi_amd/simforge1/WORK/JOB-OK/case1.k single",
   "Cluster": "aip",
   "CPU_Cost": 0.37333333333333335,
   "Mem_Cost": 0,
   "GPU_Cost": 0,
   "App_Cost": 3.7333333333333334,
   "StartDate": "2021/02/24",
   "Project": "default"
  },
  {
   "CPU_Hours": 80.85605321358223,
   "Mem_GB_Hours": 0.010037729550256839,
   "GPU_Hours": 0,
   "Runtime": 1.2633758314622223,
   "App_Hours": 80.85605321358223,
   "JobId": "32956",
   "Queue": "q_x86_cn_sim",
   "User": "simforge1",
   "App": "LS-DYNA",
   "JobDescription": "Batch-LS-DYNA",
   "JobName": "/home/export/online3/amd_share/shangruan/bin/dynayaml /home/export/base/nsccwuxi_amd/simforge1/WORK/JOB-OK/TC4/case1.k single",
   "Cluster": "aip",
   "CPU_Cost": 40.428026606791114,
   "Mem_Cost": 0,
   "GPU_Cost": 0,
   "App_Cost": 404.28026606791116,
   "StartDate": "2021/02/24",
   "Project": "default"
  },
  {
   "CPU_Hours": 173.19796309866666,
   "Mem_GB_Hours": 0.019335137885233136,
   "GPU_Hours": 0,
   "Runtime": 2.7062181734166666,
   "App_Hours": 173.19796309866666,
   "JobId": "33663",
   "Queue": "q_x86_cn_sim",
   "User": "simforge1",
   "App": "LS-DYNA",
   "JobDescription": "Batch-LS-DYNA",
   "JobName": "/home/export/online3/amd_share/shangruan/bin/dynayaml /home/export/base/nsccwuxi_amd/simforge1/WORK/JOB-OK/case3.k single",
   "Cluster": "aip",
   "CPU_Cost": 86.59898154933333,
   "Mem_Cost": 0,
   "GPU_Cost": 0,
   "App_Cost": 865.9898154933334,
   "StartDate": "2021/02/28",
   "Project": "default"
  },
  {
   "CPU_Hours": 34.79229916469333,
   "Mem_GB_Hours": 0.004077656807604152,
   "GPU_Hours": 0,
   "Runtime": 0.5436296744483333,
   "App_Hours": 34.79229916469333,
   "JobId": "32796",
   "Queue": "q_x86_cn_sim",
   "User": "simforge1",
   "App": "LS-DYNA",
   "JobDescription": "Batch-LS-DYNA",
   "JobName": "/home/export/online3/amd_share/shangruan/bin/dynayaml /home/export/base/nsccwuxi_amd/simforge1/WORK/JOB-OK/TC4_MAT98/TC4_MAT98.k single",
   "Cluster": "aip",
   "CPU_Cost": 17.396149582346666,
   "Mem_Cost": 0,
   "GPU_Cost": 0,
   "App_Cost": 173.9614958234667,
   "StartDate": "2021/02/23",
   "Project": "default"
  },
  {
   "CPU_Hours": 22.34767881525333,
   "Mem_GB_Hours": 0.003456022897477298,
   "GPU_Hours": 0,
   "Runtime": 0.46557664198444443,
   "App_Hours": 22.34767881525333,
   "JobId": "32696",
   "Queue": "q_x86_cn_sim",
   "User": "simforge1",
   "App": "LS-DYNA",
   "JobDescription": "Batch-LS-DYNA",
   "JobName": "/home/export/online3/amd_share/shangruan/bin/dynayaml /home/export/base/nsccwuxi_amd/simforge1/WORK/JOB-OK/case1.k single",
   "Cluster": "aip",
   "CPU_Cost": 11.173839407626666,
   "Mem_Cost": 0,
   "GPU_Cost": 0,
   "App_Cost": 111.73839407626667,
   "StartDate": "2021/02/23",
   "Project": "default"
  },
  {
   "CPU_Hours": 44.67781335756444,
   "Mem_GB_Hours": 0.004894164402716312,
   "GPU_Hours": 0,
   "Runtime": 0.6980908337119444,
   "App_Hours": 44.67781335756444,
   "JobId": "33535",
   "Queue": "q_x86_cn_sim",
   "User": "simforge1",
   "App": "LS-DYNA",
   "JobDescription": "Batch-LS-DYNA",
   "JobName": "/home/export/online3/amd_share/shangruan/bin/dynayaml /home/export/base/nsccwuxi_amd/simforge1/WORK/JOB-OK/ORI/CASE4.k single",
   "Cluster": "aip",
   "CPU_Cost": 22.33890667878222,
   "Mem_Cost": 0,
   "GPU_Cost": 0,
   "App_Cost": 223.38906678782223,
   "StartDate": "2021/02/27",
   "Project": "default"
  },
  {
   "CPU_Hours": 89.81668339182222,
   "Mem_GB_Hours": 0.010594437339265059,
   "GPU_Hours": 0,
   "Runtime": 1.4033856779972222,
   "App_Hours": 89.81668339182222,
   "JobId": "33551",
   "Queue": "q_x86_cn_sim",
   "User": "simforge1",
   "App": "LS-DYNA",
   "JobDescription": "Batch-LS-DYNA",
   "JobName": "/home/export/online3/amd_share/shangruan/bin/dynayaml /home/export/base/nsccwuxi_amd/simforge1/WORK/JOB-OK/CASE4.k single",
   "Cluster": "aip",
   "CPU_Cost": 44.90834169591111,
   "Mem_Cost": 0,
   "GPU_Cost": 0,
   "App_Cost": 449.08341695911105,
   "StartDate": "2021/02/27",
   "Project": "default"
  },
  {
   "CPU_Hours": 141.27691717599112,
   "Mem_GB_Hours": 0.030998481800537107,
   "GPU_Hours": 0,
   "Runtime": 4.414903661749722,
   "App_Hours": 141.27691717599112,
   "JobId": "33559",
   "Queue": "q_x86_cn_sim",
   "User": "simforge1",
   "App": "LS-DYNA",
   "JobDescription": "Batch-LS-DYNA",
   "JobName": "/home/export/online3/amd_share/shangruan/bin/dynayaml /home/export/base/nsccwuxi_amd/simforge1/WORK/s1500/CASE1_S1500.k single",
   "Cluster": "aip",
   "CPU_Cost": 70.63845858799556,
   "Mem_Cost": 0,
   "GPU_Cost": 0,
   "App_Cost": 706.3845858799556,
   "StartDate": "2021/02/27",
   "Project": "default"
  },
  {
   "CPU_Hours": 0.6000000000000001,
   "Mem_GB_Hours": 0.0001536846160888672,
   "GPU_Hours": 0,
   "Runtime": 0.0125,
   "App_Hours": 0.6000000000000001,
   "JobId": "32630",
   "Queue": "q_x86_cn_sim",
   "User": "simforge1",
   "App": "LS-DYNA",
   "JobDescription": "Batch-LS-DYNA",
   "JobName": "/home/export/online3/amd_share/shangruan/bin/dynayaml /home/export/base/nsccwuxi_amd/simforge1/WORK/JOB-OK/case1.k single",
   "Cluster": "aip",
   "CPU_Cost": 0.30000000000000004,
   "Mem_Cost": 0,
   "GPU_Cost": 0,
   "App_Cost": 3.0000000000000004,
   "StartDate": "2021/02/22",
   "Project": "default"
  },
  {
   "CPU_Hours": 0.28444444444444444,
   "Mem_GB_Hours": 0.000054931640625,
   "GPU_Hours": 0,
   "Runtime": 0.0044444444444444444,
   "App_Hours": 0.28444444444444444,
   "JobId": "33031",
   "Queue": "q_x86_cn_sim",
   "User": "simforge1",
   "App": "LS-DYNA",
   "JobDescription": "Batch-LS-DYNA",
   "JobName": "/home/export/online3/amd_share/shangruan/bin/dynayaml /home/export/base/nsccwuxi_amd/simforge1/WORK/JOB-OK/case1.k single",
   "Cluster": "aip",
   "CPU_Cost": 0.14222222222222222,
   "Mem_Cost": 0,
   "GPU_Cost": 0,
   "App_Cost": 1.4222222222222223,
   "StartDate": "2021/02/24",
   "Project": "default"
  },
  {
   "CPU_Hours": 31.076723791324447,
   "Mem_GB_Hours": 0.00354453723347715,
   "GPU_Hours": 0,
   "Runtime": 0.4855738092394445,
   "App_Hours": 31.076723791324447,
   "JobId": "32762",
   "Queue": "q_x86_cn_sim",
   "User": "simforge1",
   "App": "LS-DYNA",
   "JobDescription": "Batch-LS-DYNA",
   "JobName": "/home/export/online3/amd_share/shangruan/bin/dynayaml /home/export/base/nsccwuxi_amd/simforge1/WORK/JOB-OK/TC4/case_TC4.k single",
   "Cluster": "aip",
   "CPU_Cost": 15.538361895662224,
   "Mem_Cost": 0,
   "GPU_Cost": 0,
   "App_Cost": 155.38361895662223,
   "StartDate": "2021/02/23",
   "Project": "default"
  },
  {
   "CPU_Hours": 120.7158529168889,
   "Mem_GB_Hours": 0.014129569557084774,
   "GPU_Hours": 0,
   "Runtime": 1.8861852018263892,
   "App_Hours": 120.7158529168889,
   "JobId": "33701",
   "Queue": "q_x86_cn_sim",
   "User": "simforge1",
   "App": "LS-DYNA",
   "JobDescription": "Batch-LS-DYNA",
   "JobName": "/home/export/online3/amd_share/shangruan/bin/dynayaml /home/export/base/nsccwuxi_amd/simforge1/WORK/JOB-OK/case3.k single",
   "Cluster": "aip",
   "CPU_Cost": 60.35792645844445,
   "Mem_Cost": 0,
   "GPU_Cost": 0,
   "App_Cost": 603.5792645844443,
   "StartDate": "2021/02/28",
   "Project": "default"
  },
  {
   "CPU_Hours": 17.840761702560002,
   "Mem_GB_Hours": 0.003062454345891639,
   "GPU_Hours": 0,
   "Runtime": 0.37168253547,
   "App_Hours": 17.840761702560002,
   "JobId": "32700",
   "Queue": "q_x86_cn_sim",
   "User": "simforge1",
   "App": "LS-DYNA",
   "JobDescription": "Batch-LS-DYNA",
   "JobName": "/home/export/online3/amd_share/shangruan/bin/dynayaml /home/export/base/nsccwuxi_amd/simforge1/WORK/JOB-OK/TC4/case_TC4.k single",
   "Cluster": "aip",
   "CPU_Cost": 8.920380851280001,
   "Mem_Cost": 0,
   "GPU_Cost": 0,
   "App_Cost": 89.20380851280001,
   "StartDate": "2021/02/23",
   "Project": "default"
  },
  {
   "CPU_Hours": 84.54623000726221,
   "Mem_GB_Hours": 0.018852372520075572,
   "GPU_Hours": 0,
   "Runtime": 2.642069687726944,
   "App_Hours": 84.54623000726221,
   "JobId": "33647",
   "Queue": "q_x86_cn_sim",
   "User": "simforge1",
   "App": "LS-DYNA",
   "JobDescription": "Batch-LS-DYNA",
   "JobName": "/home/export/online3/amd_share/shangruan/bin/dynayaml /home/export/base/nsccwuxi_amd/simforge1/WORK/JOB-OK/case3.k single",
   "Cluster": "aip",
   "CPU_Cost": 42.273115003631105,
   "Mem_Cost": 0,
   "GPU_Cost": 0,
   "App_Cost": 422.73115003631113,
   "StartDate": "2021/02/28",
   "Project": "default"
  }
 ]
}