{
 "User": "simforge1",
 "Queues": "all",
 "Clusters": [
  "aip"
 ],
 "Month": "2020-11",
 "CPU_Hours": 771.5709719076968,
 "Mem_GB_Hours": 1.0512909802881516,
 "GPU_Hours": 1.5511697692925002,
 "App_Cost": 3857.8548595384846,
 "CPU_Cost": 385.7854859538484,
 "Mem_Cost": 0,
 "GPU_Cost": 0.7755848846462501,
 "Total_Cost": 4890.762401364166,
 "App_Hours": {
  "Abaqus": {
   "Hours": 705.1332551704525,
   "Cost": 3525.6662758522625
  },
  "LS-DYNA": {
   "Hours": 66.43771673724444,
   "Cost": 332.1885836862223
  }
 },
 "Details": [
  {
   "CPU_Hours": 0.1883463200372222,
   "Mem_GB_Hours": 0.1123061984529123,
   "GPU_Hours": 0.1883463200372222,
   "Runtime": 0.1883463200372222,
   "App_Hours": 0.1883463200372222,
   "JobId": "18809",
   "Queue": "local",
   "User": "simforge1",
   "App": "Abaqus",
   "JobDescription": "Abaqus",
   "JobName": "cubevnc",
   "Cluster": "aip",
   "CPU_Cost": 0.0941731600186111,
   "Mem_Cost": 0,
   "GPU_Cost": 0.0941731600186111,
   "App_Cost": 0.9417316001861111,
   "StartDate": "2020/11/29",
   "Project": "default"
  },
  {
   "CPU_Hours": 28.627601871666666,
   "Mem_GB_Hours": 0.004428377009395626,
   "GPU_Hours": 0,
   "Runtime": 0.5964083723263889,
   "App_Hours": 28.627601871666666,
   "JobId": "18823",
   "Queue": "q_x86_cn_sim",
   "User": "simforge1",
   "App": "Abaqus",
   "JobDescription": "Batch-Abaqus",
   "JobName": "/home/export/online3/amd_share/shangruan/bin/abaqus614 /home/export/base/nsccwuxi_amd/simforge1/WORK/JOB-OK/Job-22.inp",
   "Cluster": "aip",
   "CPU_Cost": 14.313800935833333,
   "Mem_Cost": 0,
   "GPU_Cost": 0,
   "App_Cost": 143.13800935833333,
   "StartDate": "2020/11/29",
   "Project": "default"
  },
  {
   "CPU_Hours": 62.77617833688,
   "Mem_GB_Hours": 0.009533544324753215,
   "GPU_Hours": 0,
   "Runtime": 1.307837048685,
   "App_Hours": 62.77617833688,
   "JobId": "18824",
   "Queue": "q_x86_cn_sim",
   "User": "simforge1",
   "App": "Abaqus",
   "JobDescription": "Batch-Abaqus",
   "JobName": "/home/export/online3/amd_share/shangruan/bin/abaqus614 /home/export/base/nsccwuxi_amd/simforge1/WORK/JOB-OK/Job-25.inp",
   "Cluster": "aip",
   "CPU_Cost": 31.38808916844,
   "Mem_Cost": 0,
   "GPU_Cost": 0,
   "App_Cost": 313.88089168439996,
   "StartDate": "2020/11/29",
   "Project": "default"
  },
  {
   "CPU_Hours": 470.70666422759103,
   "Mem_GB_Hours": 0.05152311324974151,
   "GPU_Hours": 0,
   "Runtime": 7.35479162855611,
   "App_Hours": 470.70666422759103,
   "JobId": "18761",
   "Queue": "q_x86_vio_share",
   "User": "simforge1",
   "App": "Abaqus",
   "JobDescription": "Batch-Abaqus",
   "JobName": "/home/export/online3/amd_share/shangruan/bin/abaqus614 /home/export/base/nsccwuxi_amd/simforge1/WORK/JOB-OK/Job-17.inp",
   "Cluster": "aip",
   "CPU_Cost": 235.35333211379552,
   "Mem_Cost": 0,
   "GPU_Cost": 0,
   "App_Cost": 2353.533321137955,
   "StartDate": "2020/11/29",
   "Project": "default"
  },
  {
   "CPU_Hours": 6.648888888888889,
   "Mem_GB_Hours": 0.0009784762064615885,
   "GPU_Hours": 0,
   "Runtime": 0.10388888888888889,
   "App_Hours": 6.648888888888889,
   "JobId": "18805",
   "Queue": "q_x86_vio_share",
   "User": "simforge1",
   "App": "Abaqus",
   "JobDescription": "Batch-Abaqus",
   "JobName": "/home/export/online3/amd_share/shangruan/bin/abaqus614 /home/export/base/nsccwuxi_amd/simforge1/WORK/JOB-OK/Job-ok.inp",
   "Cluster": "aip",
   "CPU_Cost": 3.3244444444444445,
   "Mem_Cost": 0,
   "GPU_Cost": 0,
   "App_Cost": 33.24444444444445,
   "StartDate": "2020/11/29",
   "Project": "default"
  },
  {
   "CPU_Hours": 20.534002605155557,
   "Mem_GB_Hours": 0.00255416634901744,
   "GPU_Hours": 0,
   "Runtime": 0.3208437907055556,
   "App_Hours": 20.534002605155557,
   "JobId": "18943",
   "Queue": "q_x86_cn_sim",
   "User": "simforge1",
   "App": "Abaqus",
   "JobDescription": "Batch-Abaqus",
   "JobName": "/home/export/online3/amd_share/shangruan/bin/abaqus614 /home/export/base/nsccwuxi_amd/simforge1/WORK/JOB-OK/Job-1130_1.inp",
   "Cluster": "aip",
   "CPU_Cost": 10.267001302577778,
   "Mem_Cost": 0,
   "GPU_Cost": 0,
   "App_Cost": 102.67001302577776,
   "StartDate": "2020/11/30",
   "Project": "default"
  },
  {
   "CPU_Hours": 0.16,
   "Mem_GB_Hours": 0.00002356529235839844,
   "GPU_Hours": 0,
   "Runtime": 0.0025,
   "App_Hours": 0.16,
   "JobId": "18806",
   "Queue": "q_x86_vio_share",
   "User": "simforge1",
   "App": "Abaqus",
   "JobDescription": "Batch-Abaqus",
   "JobName": "/home/export/online3/amd_share/shangruan/bin/abaqus614 /home/export/base/nsccwuxi_amd/simforge1/WORK/JOB-OK/Job-ok.inp",
   "Cluster": "aip",
   "CPU_Cost": 0.08,
   "Mem_Cost": 0,
   "GPU_Cost": 0,
   "App_Cost": 0.8,
   "StartDate": "2020/11/29",
   "Project": "default"
  },
  {
   "CPU_Hours": 0.10777777777777778,
   "Mem_GB_Hours": 0.06602202945285374,
   "GPU_Hours": 0.10777777777777778,
   "Runtime": 0.10777777777777778,
   "App_Hours": 0.10777777777777778,
   "JobId": "18781",
   "Queue": "local",
   "User": "simforge1",
   "App": "Abaqus",
   "JobDescription": "Abaqus",
   "JobName": "cubevnc",
   "Cluster": "aip",
   "CPU_Cost": 0.05388888888888889,
   "Mem_Cost": 0,
   "GPU_Cost": 0.05388888888888889,
   "App_Cost": 0.5388888888888889,
   "StartDate": "2020/11/29",
   "Project": "default"
  },
  {
   "CPU_Hours": 19.39600210408889,
   "Mem_GB_Hours": 0.0024101584925682704,
   "GPU_Hours": 0,
   "Runtime": 0.3030625328763889,
   "App_Hours": 19.39600210408889,
   "JobId": "18947",
   "Queue": "q_x86_cn_sim",
   "User": "simforge1",
   "App": "Abaqus",
   "JobDescription": "Batch-Abaqus",
   "JobName": "/home/export/online3/amd_share/shangruan/bin/abaqus614 /home/export/base/nsccwuxi_amd/simforge1/WORK/JOB-OK/Job-1130_2.inp",
   "Cluster": "aip",
   "CPU_Cost": 9.698001052044445,
   "Mem_Cost": 0,
   "GPU_Cost": 0,
   "App_Cost": 96.98001052044444,
   "StartDate": "2020/11/30",
   "Project": "default"
  },
  {
   "CPU_Hours": 33.65429990156444,
   "Mem_GB_Hours": 0.004004238522674157,
   "GPU_Hours": 0,
   "Runtime": 0.5258484359619444,
   "App_Hours": 33.65429990156444,
   "JobId": "18955",
   "Queue": "q_x86_cn_sim",
   "User": "simforge1",
   "App": "LS-DYNA",
   "JobDescription": "Batch-LS-DYNA",
   "JobName": "/home/export/online3/amd_share/shangruan/bin/dynayaml /home/export/base/nsccwuxi_amd/simforge1/WORK/JOB-OK/15kmh/15kmh.k single",
   "Cluster": "aip",
   "CPU_Cost": 16.82714995078222,
   "Mem_Cost": 0,
   "GPU_Cost": 0,
   "App_Cost": 168.27149950782223,
   "StartDate": "2020/11/30",
   "Project": "default"
  },
  {
   "CPU_Hours": 0.13694444444444445,
   "Mem_GB_Hours": 0.11512111769782173,
   "GPU_Hours": 0.13694444444444445,
   "Runtime": 0.13694444444444445,
   "App_Hours": 0.13694444444444445,
   "JobId": "18818",
   "Queue": "local",
   "User": "simforge1",
   "App": "Abaqus",
   "JobDescription": "Abaqus",
   "JobName": "cubevnc",
   "Cluster": "aip",
   "CPU_Cost": 0.06847222222222223,
   "Mem_Cost": 0,
   "GPU_Cost": 0.06847222222222223,
   "App_Cost": 0.6847222222222222,
   "StartDate": "2020/11/29",
   "Project": "default"
  },
  {
   "CPU_Hours": 0.5269681234786111,
   "Mem_GB_Hours": 0.3149152137804293,
   "GPU_Hours": 0.5269681234786111,
   "Runtime": 0.5269681234786111,
   "App_Hours": 0.5269681234786111,
   "JobId": "18800",
   "Queue": "local",
   "User": "simforge1",
   "App": "Abaqus",
   "JobDescription": "Abaqus",
   "JobName": "cubevnc",
   "Cluster": "aip",
   "CPU_Cost": 0.26348406173930555,
   "Mem_Cost": 0,
   "GPU_Cost": 0.26348406173930555,
   "App_Cost": 2.6348406173930554,
   "StartDate": "2020/11/29",
   "Project": "default"
  },
  {
   "CPU_Hours": 0.44252199244333335,
   "Mem_GB_Hours": 0.25873921788981225,
   "GPU_Hours": 0.44252199244333335,
   "Runtime": 0.44252199244333335,
   "App_Hours": 0.44252199244333335,
   "JobId": "18820",
   "Queue": "local",
   "User": "simforge1",
   "App": "Abaqus",
   "JobDescription": "Abaqus",
   "JobName": "cubevnc",
   "Cluster": "aip",
   "CPU_Cost": 0.22126099622166667,
   "Mem_Cost": 0,
   "GPU_Cost": 0.22126099622166667,
   "App_Cost": 2.212609962216667,
   "StartDate": "2020/11/29",
   "Project": "default"
  },
  {
   "CPU_Hours": 23.378608926826665,
   "Mem_GB_Hours": 0.0028672900900828233,
   "GPU_Hours": 0,
   "Runtime": 0.36529076448166664,
   "App_Hours": 23.378608926826665,
   "JobId": "18807",
   "Queue": "q_x86_vio_share",
   "User": "simforge1",
   "App": "Abaqus",
   "JobDescription": "Batch-Abaqus",
   "JobName": "/home/export/online3/amd_share/shangruan/bin/abaqus614 /home/export/base/nsccwuxi_amd/simforge1/WORK/JOB-OK/Job-ok.inp",
   "Cluster": "aip",
   "CPU_Cost": 11.689304463413333,
   "Mem_Cost": 0,
   "GPU_Cost": 0,
   "App_Cost": 116.89304463413333,
   "StartDate": "2020/11/29",
   "Project": "default"
  },
  {
   "CPU_Hours": 29.414475056826667,
   "Mem_GB_Hours": 0.004630261816875828,
   "GPU_Hours": 0,
   "Runtime": 0.6128015636838888,
   "App_Hours": 29.414475056826667,
   "JobId": "18815",
   "Queue": "q_x86_cn_sim",
   "User": "simforge1",
   "App": "Abaqus",
   "JobDescription": "Batch-Abaqus",
   "JobName": "/home/export/online3/amd_share/shangruan/bin/abaqus614 /home/export/base/nsccwuxi_amd/simforge1/WORK/JOB-OK/Job-ok_1.inp",
   "Cluster": "aip",
   "CPU_Cost": 14.707237528413334,
   "Mem_Cost": 0,
   "GPU_Cost": 0,
   "App_Cost": 147.07237528413333,
   "StartDate": "2020/11/29",
   "Project": "default"
  },
  {
   "CPU_Hours": 32.78341683568,
   "Mem_GB_Hours": 0.003950354850965778,
   "GPU_Hours": 0,
   "Runtime": 0.5122408880575,
   "App_Hours": 32.78341683568,
   "JobId": "18962",
   "Queue": "q_x86_cn_sim",
   "User": "simforge1",
   "App": "LS-DYNA",
   "JobDescription": "Batch-LS-DYNA",
   "JobName": "/home/export/online3/amd_share/shangruan/bin/dynayaml /home/export/base/nsccwuxi_amd/simforge1/WORK/JOB-OK/25kmh/25kmh.k single",
   "Cluster": "aip",
   "CPU_Cost": 16.39170841784,
   "Mem_Cost": 0,
   "GPU_Cost": 0,
   "App_Cost": 163.9170841784,
   "StartDate": "2020/11/30",
   "Project": "default"
  },
  {
   "CPU_Hours": 0.1486111111111111,
   "Mem_GB_Hours": 0.09229916466606988,
   "GPU_Hours": 0.1486111111111111,
   "Runtime": 0.1486111111111111,
   "App_Hours": 0.1486111111111111,
   "JobId": "18764",
   "Queue": "local",
   "User": "simforge1",
   "App": "Abaqus",
   "JobDescription": "Abaqus",
   "JobName": "cubevnc",
   "Cluster": "aip",
   "CPU_Cost": 0.07430555555555556,
   "Mem_Cost": 0,
   "GPU_Cost": 0.07430555555555556,
   "App_Cost": 0.7430555555555556,
   "StartDate": "2020/11/29",
   "Project": "default"
  },
  {
   "CPU_Hours": 13.671774087537777,
   "Mem_GB_Hours": 0.0018547981007535977,
   "GPU_Hours": 0,
   "Runtime": 0.21362147011777777,
   "App_Hours": 13.671774087537777,
   "JobId": "18754",
   "Queue": "q_x86_vio_share",
   "User": "simforge1",
   "App": "Abaqus",
   "JobDescription": "Batch-Abaqus",
   "JobName": "/home/export/online3/amd_share/shangruan/bin/abaqus614 /home/export/base/nsccwuxi_amd/simforge1/WORK/JOB-OK/Job-16.inp",
   "Cluster": "aip",
   "CPU_Cost": 6.835887043768889,
   "Mem_Cost": 0,
   "GPU_Cost": 0,
   "App_Cost": 68.35887043768889,
   "StartDate": "2020/11/29",
   "Project": "default"
  },
  {
   "CPU_Hours": 28.267889295697778,
   "Mem_GB_Hours": 0.003129694042604118,
   "GPU_Hours": 0,
   "Runtime": 0.4416857702452778,
   "App_Hours": 28.267889295697778,
   "JobId": "18758",
   "Queue": "q_x86_vio_share",
   "User": "simforge1",
   "App": "Abaqus",
   "JobDescription": "Batch-Abaqus",
   "JobName": "/home/export/online3/amd_share/shangruan/bin/abaqus614 /home/export/base/nsccwuxi_amd/simforge1/WORK/JOB-OK/Job-16.inp",
   "Cluster": "aip",
   "CPU_Cost": 14.133944647848889,
   "Mem_Cost": 0,
   "GPU_Cost": 0,
   "App_Cost": 141.3394464784889,
   "StartDate": "2020/11/29",
   "Project": "default"
  }
 ]
}