{"GPU_Hours":1.4961111111111,"App_Hours":{"LS-DYNA":{"Hours":11.497222222222,"UnitPrice":5,"Cost":57.486111111111},"LSPrePost":{"Hours":1.4961111111111,"UnitPrice":0,"Cost":0}},"Month":"2020-08","CPU_Hours":12.993333333333,"Users":{"simforge24":64.868037310388},"Mem_GB_Hours":1.3720397705502,"App_Cost":57.486111111111,"Mem_Cost":0.13720397705502,"GPU_Cost":0.74805555555556,"Total_Cost":64.868037310388,"CPU_Cost":6.4966666666667,"Details":[{"EndDate":"2020\/08\/18","GPU_Hours":0,"App":"LS-DYNA","JobName":"\/home\/export\/base\/nsccwuxi_amd\/simforge24\/WORK\/NL\/3\/jitou_meigu3.key","JobId":"8096","Queue":"q_x86_expr","Cluster":"aip","CPU_Hours":0.10055555555556,"User":"simforge24","Mem_GB_Hours":0.00055255995856391,"runTime":0.050277777777778,"JobDescription":"jitou_meigu3.key","GPU_Cost":0,"CPU_Cost":0.050277777777778,"Mem_Cost":5.5255995856391e-5,"App_Cost":0.50277777777778},{"EndDate":"2020\/08\/18","GPU_Hours":0,"App":"LS-DYNA","JobName":"\/home\/export\/base\/nsccwuxi_amd\/simforge24\/WORK\/NL\/3\/jitou_meigu3.key","JobId":"8098","Queue":"q_x86_expr","Cluster":"aip","CPU_Hours":0.72,"User":"simforge24","Mem_GB_Hours":0.00032546997070312,"runTime":0.03,"JobDescription":"jitou_meigu3.key","GPU_Cost":0,"CPU_Cost":0.36,"Mem_Cost":3.2546997070313e-5,"App_Cost":3.6},{"EndDate":"2020\/08\/18","GPU_Hours":0,"App":"LS-DYNA","JobName":"\/home\/export\/base\/nsccwuxi_amd\/simforge24\/WORK\/NL\/3\/jitou_meigu3.key","JobId":"8101","Queue":"q_x86_expr","Cluster":"aip","CPU_Hours":0.18666666666667,"User":"simforge24","Mem_GB_Hours":8.4440443250868e-5,"runTime":0.0077777777777778,"JobDescription":"jitou_meigu3.key","GPU_Cost":0,"CPU_Cost":0.093333333333333,"Mem_Cost":8.4440443250868e-6,"App_Cost":0.93333333333333},{"EndDate":"2020\/08\/18","GPU_Hours":1.0586111111111,"App":"LSPrePost","JobName":"cubevnc","JobId":"8095","Queue":"local","Cluster":"aip","CPU_Hours":1.0586111111111,"User":"simforge24","Mem_GB_Hours":1.0654196527269,"runTime":1.0586111111111,"JobDescription":"jitou_meigu","GPU_Cost":0.52930555555556,"CPU_Cost":0.52930555555556,"Mem_Cost":0.10654196527269,"App_Cost":0},{"EndDate":"2020\/08\/18","GPU_Hours":0.14611111111111,"App":"LSPrePost","JobName":"cubevnc","JobId":"8104","Queue":"local","Cluster":"aip","CPU_Hours":0.14611111111111,"User":"simforge24","Mem_GB_Hours":0.10442487716675,"runTime":0.14611111111111,"JobDescription":"jitou_meigu","GPU_Cost":0.073055555555556,"CPU_Cost":0.073055555555556,"Mem_Cost":0.010442487716675,"App_Cost":0},{"EndDate":"2020\/08\/18","GPU_Hours":0,"App":"LS-DYNA","JobName":"\/home\/export\/base\/nsccwuxi_amd\/simforge24\/WORK\/NL\/3\/jitou_meigu3.key","JobId":"8102","Queue":"q_x86_expr","Cluster":"aip","CPU_Hours":10.236666666667,"User":"simforge24","Mem_GB_Hours":0.0092547988891602,"runTime":0.85305555555556,"JobDescription":"jitou_meigu3.key","GPU_Cost":0,"CPU_Cost":5.1183333333333,"Mem_Cost":0.00092547988891602,"App_Cost":51.183333333333},{"EndDate":"2020\/08\/18","GPU_Hours":0,"App":"LS-DYNA","JobName":"\/home\/export\/base\/nsccwuxi_amd\/simforge24\/WORK\/NL\/5\/jitou_meigu5.key","JobId":"8110","Queue":"q_x86_expr","Cluster":"aip","CPU_Hours":0.25333333333333,"User":"simforge24","Mem_GB_Hours":0.00011459774441189,"runTime":0.010555555555556,"JobDescription":"jitou_meigu5.key","GPU_Cost":0,"CPU_Cost":0.12666666666667,"Mem_Cost":1.1459774441189e-5,"App_Cost":1.2666666666667},{"EndDate":"2020\/08\/18","GPU_Hours":0.28472222222222,"App":"LSPrePost","JobName":"cubevnc","JobId":"8106","Queue":"local","Cluster":"aip","CPU_Hours":0.28472222222222,"User":"simforge24","Mem_GB_Hours":0.19058089786106,"runTime":0.28472222222222,"JobDescription":"jitou_meigu","GPU_Cost":0.14236111111111,"CPU_Cost":0.14236111111111,"Mem_Cost":0.019058089786106,"App_Cost":0},{"EndDate":"2020\/08\/18","GPU_Hours":0.0066666666666667,"App":"LSPrePost","JobName":"cubevnc","JobId":"8111","Queue":"local","Cluster":"aip","CPU_Hours":0.0066666666666667,"User":"simforge24","Mem_GB_Hours":0.001282475789388,"runTime":0.0066666666666667,"JobDescription":"jitou_meigu","GPU_Cost":0.0033333333333333,"CPU_Cost":0.0033333333333333,"Mem_Cost":0.0001282475789388,"App_Cost":0}],"User":"simforge24"}