{"GPU_Hours":1.1561111111111,"App_Hours":{"StarCCM":{"Hours":1248.5494444444,"UnitPrice":5,"Cost":6242.7472222222},"Fluent":{"Hours":1893.5033333333,"UnitPrice":5,"Cost":9467.5166666667},"TankSim":{"Hours":101.94166666667,"UnitPrice":1,"Cost":101.94166666667},"PointWise":{"Hours":28.078611111111,"UnitPrice":5,"Cost":140.39305555556},"ICEM-CFD":{"Hours":246.07055555556,"UnitPrice":5,"Cost":1230.3527777778},"ParaView":{"Hours":438.63111111111,"UnitPrice":0.5,"Cost":219.31555555556},"Abaqus":{"Hours":509.82222222222,"UnitPrice":5,"Cost":2549.1111111111},"LSPrePost":{"Hours":219.11805555556,"UnitPrice":0,"Cost":0},"Abaqus2017":{"Hours":1.8716666666667,"UnitPrice":5,"Cost":9.3583333333333},"LS-DYNA":{"Hours":248.06388888889,"UnitPrice":5,"Cost":1240.3194444444},"Tanksimulator-Calculix":{"Hours":1.6313888888889,"UnitPrice":0,"Cost":0},"Tanksimulator-Openfoam":{"Hours":1.6275,"UnitPrice":0,"Cost":0},"StarCCM2":{"Hours":0.80333333333333,"UnitPrice":5,"Cost":4.0166666666667},"Tanksimulator-MeshGenerate":{"Hours":0.12055555555556,"UnitPrice":0,"Cost":0}},"Month":"2020-07","CPU_Hours":4985.6925,"Users":{"simforgetest1":23790.20830716},"Mem_GB_Hours":957.32612716039,"App_Cost":21205.0725,"Mem_Cost":95.732612716039,"GPU_Cost":0.57805555555556,"Total_Cost":23790.20830716,"CPU_Cost":2488.8251388889,"Details":[{"EndDate":"2020\/07\/01","GPU_Hours":0,"App":"StarCCM","JobName":"cubevnc","JobId":"2758","Queue":"q_x86_expr","Cluster":"aip","CPU_Hours":0.081111111111111,"User":"simforgetest1","Mem_GB_Hours":0.0013850159115262,"runTime":0.020277777777778,"JobDescription":"starccm_test","GPU_Cost":0,"CPU_Cost":0.040555555555556,"Mem_Cost":0.00013850159115262,"App_Cost":0.40555555555556},{"EndDate":"2020\/07\/01","GPU_Hours":0,"App":"StarCCM","JobName":"cubevnc","JobId":"2759","Queue":"q_x86_expr","Cluster":"aip","CPU_Hours":0.016111111111111,"User":"simforgetest1","Mem_GB_Hours":0.0010905901590983,"runTime":0.016111111111111,"JobDescription":"starccm_test","GPU_Cost":0,"CPU_Cost":0.0080555555555556,"Mem_Cost":0.00010905901590983,"App_Cost":0.080555555555556},{"EndDate":"2020\/07\/01","GPU_Hours":0,"App":"StarCCM","JobName":"cubevnc","JobId":"2760","Queue":"q_x86_expr","Cluster":"aip","CPU_Hours":1.5811111111111,"User":"simforgetest1","Mem_GB_Hours":0.028525791168213,"runTime":0.39527777777778,"JobDescription":"starccm_test","GPU_Cost":0,"CPU_Cost":0.79055555555556,"Mem_Cost":0.0028525791168213,"App_Cost":7.9055555555556},{"EndDate":"2020\/07\/01","GPU_Hours":0,"App":"Fluent","JobName":"cubevnc","JobId":"2761","Queue":"q_x86_expr","Cluster":"aip","CPU_Hours":1.4844444444444,"User":"simforgetest1","Mem_GB_Hours":0.028174794514974,"runTime":0.37111111111111,"JobDescription":"fluent_test","GPU_Cost":0,"CPU_Cost":0.74222222222222,"Mem_Cost":0.0028174794514974,"App_Cost":7.4222222222222},{"EndDate":"2020\/07\/01","GPU_Hours":0,"App":"TankSim","JobName":"cubevnc","JobId":"2785","Queue":"q_x86_expr","Cluster":"aip","CPU_Hours":0.0052777777777778,"User":"simforgetest1","Mem_GB_Hours":0.00064637396070692,"runTime":0.0052777777777778,"JobDescription":"testtank01","GPU_Cost":0,"CPU_Cost":0.0026388888888889,"Mem_Cost":6.4637396070692e-5,"App_Cost":0.0052777777777778},{"EndDate":"2020\/07\/01","GPU_Hours":0,"App":"TankSim","JobName":"cubevnc","JobId":"2786","Queue":"q_x86_expr","Cluster":"aip","CPU_Hours":0.0052777777777778,"User":"simforgetest1","Mem_GB_Hours":0.00061699973212348,"runTime":0.0052777777777778,"JobDescription":"tanknew02","GPU_Cost":0,"CPU_Cost":0.0026388888888889,"Mem_Cost":6.1699973212348e-5,"App_Cost":0.0052777777777778},{"EndDate":"2020\/07\/01","GPU_Hours":0,"App":"PointWise","JobName":"cubevnc","JobId":"2791","Queue":"q_x86_expr","Cluster":"aip","CPU_Hours":0.0011111111111111,"User":"simforgetest1","Mem_GB_Hours":1.4046563042535e-5,"runTime":0.0011111111111111,"JobDescription":"PW_test","GPU_Cost":0,"CPU_Cost":0.00055555555555556,"Mem_Cost":1.4046563042535e-6,"App_Cost":0.0055555555555556},{"EndDate":"2020\/07\/01","GPU_Hours":0,"App":"PointWise","JobName":"cubevnc","JobId":"2792","Queue":"q_x86_expr","Cluster":"aip","CPU_Hours":0.0011111111111111,"User":"simforgetest1","Mem_GB_Hours":1.40380859375e-5,"runTime":0.0011111111111111,"JobDescription":"PW_test","GPU_Cost":0,"CPU_Cost":0.00055555555555556,"Mem_Cost":1.40380859375e-6,"App_Cost":0.0055555555555556},{"EndDate":"2020\/07\/01","GPU_Hours":0,"App":"PointWise","JobName":"cubevnc","JobId":"2793","Queue":"q_x86_expr","Cluster":"aip","CPU_Hours":0.0011111111111111,"User":"simforgetest1","Mem_GB_Hours":1.40380859375e-5,"runTime":0.0011111111111111,"JobDescription":"PW_test","GPU_Cost":0,"CPU_Cost":0.00055555555555556,"Mem_Cost":1.40380859375e-6,"App_Cost":0.0055555555555556},{"EndDate":"2020\/07\/01","GPU_Hours":0,"App":"PointWise","JobName":"cubevnc","JobId":"2801","Queue":"q_x86_expr","Cluster":"aip","CPU_Hours":0.0011111111111111,"User":"simforgetest1","Mem_GB_Hours":1.4042324490017e-5,"runTime":0.0011111111111111,"JobDescription":"PW_testp","GPU_Cost":0,"CPU_Cost":0.00055555555555556,"Mem_Cost":1.4042324490017e-6,"App_Cost":0.0055555555555556},{"EndDate":"2020\/07\/01","GPU_Hours":0,"App":"PointWise","JobName":"cubevnc","JobId":"2803","Queue":"q_x86_expr","Cluster":"aip","CPU_Hours":0.0011111111111111,"User":"simforgetest1","Mem_GB_Hours":1.40380859375e-5,"runTime":0.0011111111111111,"JobDescription":"PW_test","GPU_Cost":0,"CPU_Cost":0.00055555555555556,"Mem_Cost":1.40380859375e-6,"App_Cost":0.0055555555555556},{"EndDate":"2020\/07\/01","GPU_Hours":0,"App":"PointWise","JobName":"cubevnc","JobId":"2805","Queue":"q_x86_expr","Cluster":"aip","CPU_Hours":0.0011111111111111,"User":"simforgetest1","Mem_GB_Hours":1.4046563042535e-5,"runTime":0.0011111111111111,"JobDescription":"PW_TETS","GPU_Cost":0,"CPU_Cost":0.00055555555555556,"Mem_Cost":1.4046563042535e-6,"App_Cost":0.0055555555555556},{"EndDate":"2020\/07\/01","GPU_Hours":0,"App":"PointWise","JobName":"cubevnc","JobId":"2808","Queue":"q_x86_expr","Cluster":"aip","CPU_Hours":0.0013888888888889,"User":"simforgetest1","Mem_GB_Hours":1.7547607421875e-5,"runTime":0.0013888888888889,"JobDescription":"PW_test","GPU_Cost":0,"CPU_Cost":0.00069444444444444,"Mem_Cost":1.7547607421875e-6,"App_Cost":0.0069444444444444},{"EndDate":"2020\/07\/01","GPU_Hours":0,"App":"ICEM-CFD","JobName":"cubevnc","JobId":"2794","Queue":"q_x86_expr","Cluster":"aip","CPU_Hours":0.62222222222222,"User":"simforgetest1","Mem_GB_Hours":0.12230868869358,"runTime":0.62222222222222,"JobDescription":"icemcfd","GPU_Cost":0,"CPU_Cost":0.31111111111111,"Mem_Cost":0.012230868869358,"App_Cost":3.1111111111111},{"EndDate":"2020\/07\/01","GPU_Hours":0,"App":"Fluent","JobName":"cubevnc","JobId":"2813","Queue":"q_x86_expr","Cluster":"aip","CPU_Hours":0.038888888888889,"User":"simforgetest1","Mem_GB_Hours":0.00069138209025065,"runTime":0.0097222222222222,"JobDescription":"fluent_test","GPU_Cost":0,"CPU_Cost":0.019444444444444,"Mem_Cost":6.9138209025065e-5,"App_Cost":0.19444444444444},{"EndDate":"2020\/07\/01","GPU_Hours":0,"App":"Fluent","JobName":"cubevnc","JobId":"2828","Queue":"q_x86_expr","Cluster":"aip","CPU_Hours":0.042222222222222,"User":"simforgetest1","Mem_GB_Hours":0.00074794557359484,"runTime":0.010555555555556,"JobDescription":"fluent_test","GPU_Cost":0,"CPU_Cost":0.021111111111111,"Mem_Cost":7.4794557359484e-5,"App_Cost":0.21111111111111},{"EndDate":"2020\/07\/01","GPU_Hours":0,"App":"StarCCM","JobName":"cubevnc","JobId":"2830","Queue":"q_x86_expr","Cluster":"aip","CPU_Hours":0.16416666666667,"User":"simforgetest1","Mem_GB_Hours":0.043041688071357,"runTime":0.054722222222222,"JobDescription":"starccm_test","GPU_Cost":0,"CPU_Cost":0.082083333333333,"Mem_Cost":0.0043041688071357,"App_Cost":0.82083333333333},{"EndDate":"2020\/07\/01","GPU_Hours":0,"App":"StarCCM","JobName":"cubevnc","JobId":"2834","Queue":"q_x86_expr","Cluster":"aip","CPU_Hours":0.0725,"User":"simforgetest1","Mem_GB_Hours":0.020114889144897,"runTime":0.024166666666667,"JobDescription":"starccm_test","GPU_Cost":0,"CPU_Cost":0.03625,"Mem_Cost":0.0020114889144897,"App_Cost":0.3625},{"EndDate":"2020\/07\/01","GPU_Hours":0,"App":"StarCCM","JobName":"cubevnc","JobId":"2836","Queue":"q_x86_expr","Cluster":"aip","CPU_Hours":0.60916666666667,"User":"simforgetest1","Mem_GB_Hours":0.14979746924506,"runTime":0.20305555555556,"JobDescription":"starccm_test","GPU_Cost":0,"CPU_Cost":0.30458333333333,"Mem_Cost":0.014979746924506,"App_Cost":3.0458333333333},{"EndDate":"2020\/07\/01","GPU_Hours":0,"App":"StarCCM","JobName":"cubevnc","JobId":"2843","Queue":"q_x86_expr","Cluster":"aip","CPU_Hours":0.0925,"User":"simforgetest1","Mem_GB_Hours":0.022895523707072,"runTime":0.030833333333333,"JobDescription":"starccm_test","GPU_Cost":0,"CPU_Cost":0.04625,"Mem_Cost":0.0022895523707072,"App_Cost":0.4625},{"EndDate":"2020\/07\/01","GPU_Hours":0,"App":"StarCCM","JobName":"cubevnc","JobId":"2844","Queue":"q_x86_expr","Cluster":"aip","CPU_Hours":3.7933333333333,"User":"simforgetest1","Mem_GB_Hours":0.86407208760579,"runTime":1.2644444444444,"JobDescription":"starccm_test","GPU_Cost":0,"CPU_Cost":1.8966666666667,"Mem_Cost":0.086407208760579,"App_Cost":18.966666666667},{"EndDate":"2020\/07\/01","GPU_Hours":0,"App":"StarCCM","JobName":"cubevnc","JobId":"2863","Queue":"q_x86_expr","Cluster":"aip","CPU_Hours":0.035833333333333,"User":"simforgetest1","Mem_GB_Hours":0.027540012995402,"runTime":0.035833333333333,"JobDescription":"starccm_test","GPU_Cost":0,"CPU_Cost":0.017916666666667,"Mem_Cost":0.0027540012995402,"App_Cost":0.17916666666667},{"EndDate":"2020\/07\/01","GPU_Hours":0,"App":"PointWise","JobName":"cubevnc","JobId":"2865","Queue":"q_x86_expr","Cluster":"aip","CPU_Hours":0.0055555555555556,"User":"simforgetest1","Mem_GB_Hours":0.0016435623168945,"runTime":0.0055555555555556,"JobDescription":"PW_test","GPU_Cost":0,"CPU_Cost":0.0027777777777778,"Mem_Cost":0.00016435623168945,"App_Cost":0.027777777777778},{"EndDate":"2020\/07\/01","GPU_Hours":0,"App":"StarCCM","JobName":"cubevnc","JobId":"2866","Queue":"q_x86_expr","Cluster":"aip","CPU_Hours":0.037777777777778,"User":"simforgetest1","Mem_GB_Hours":0.027831971910265,"runTime":0.037777777777778,"JobDescription":"starccm_test","GPU_Cost":0,"CPU_Cost":0.018888888888889,"Mem_Cost":0.0027831971910265,"App_Cost":0.18888888888889},{"EndDate":"2020\/07\/02","GPU_Hours":0,"App":"StarCCM","JobName":"cubevnc","JobId":"2920","Queue":"q_x86_expr","Cluster":"aip","CPU_Hours":0.0088888888888889,"User":"simforgetest1","Mem_GB_Hours":1.4042324490017e-5,"runTime":0.0011111111111111,"JobDescription":"starccm_test","GPU_Cost":0,"CPU_Cost":0.0044444444444444,"Mem_Cost":1.4042324490017e-6,"App_Cost":0.044444444444444},{"EndDate":"2020\/07\/02","GPU_Hours":0,"App":"StarCCM","JobName":"cubevnc","JobId":"2921","Queue":"q_x86_expr","Cluster":"aip","CPU_Hours":0.0044444444444444,"User":"simforgetest1","Mem_GB_Hours":1.40380859375e-5,"runTime":0.0011111111111111,"JobDescription":"starccm_test","GPU_Cost":0,"CPU_Cost":0.0022222222222222,"Mem_Cost":1.40380859375e-6,"App_Cost":0.022222222222222},{"EndDate":"2020\/07\/02","GPU_Hours":0,"App":"StarCCM","JobName":"cubevnc","JobId":"2926","Queue":"q_x86_expr","Cluster":"aip","CPU_Hours":0.0044444444444444,"User":"simforgetest1","Mem_GB_Hours":1.4042324490017e-5,"runTime":0.0011111111111111,"JobDescription":"starccm_test","GPU_Cost":0,"CPU_Cost":0.0022222222222222,"Mem_Cost":1.4042324490017e-6,"App_Cost":0.022222222222222},{"EndDate":"2020\/07\/02","GPU_Hours":0,"App":"StarCCM","JobName":"cubevnc","JobId":"2927","Queue":"q_x86_expr","Cluster":"aip","CPU_Hours":0.0044444444444444,"User":"simforgetest1","Mem_GB_Hours":1.40380859375e-5,"runTime":0.0011111111111111,"JobDescription":"starccm_test","GPU_Cost":0,"CPU_Cost":0.0022222222222222,"Mem_Cost":1.40380859375e-6,"App_Cost":0.022222222222222},{"EndDate":"2020\/07\/02","GPU_Hours":0,"App":"StarCCM","JobName":"cubevnc","JobId":"2929","Queue":"q_x86_expr","Cluster":"aip","CPU_Hours":1.0022222222222,"User":"simforgetest1","Mem_GB_Hours":0.22099763870239,"runTime":0.25055555555556,"JobDescription":"starccm_test","GPU_Cost":0,"CPU_Cost":0.50111111111111,"Mem_Cost":0.022099763870239,"App_Cost":5.0111111111111},{"EndDate":"2020\/07\/02","GPU_Hours":0,"App":"Fluent","JobName":"cubevnc","JobId":"2930","Queue":"q_x86_expr","Cluster":"aip","CPU_Hours":0.0044444444444444,"User":"simforgetest1","Mem_GB_Hours":0.00034208509657118,"runTime":0.0044444444444444,"JobDescription":"fluent_test","GPU_Cost":0,"CPU_Cost":0.0022222222222222,"Mem_Cost":3.4208509657118e-5,"App_Cost":0.022222222222222},{"EndDate":"2020\/07\/02","GPU_Hours":0,"App":"Fluent","JobName":"cubevnc","JobId":"2936","Queue":"q_x86_expr","Cluster":"aip","CPU_Hours":0.027777777777778,"User":"simforgetest1","Mem_GB_Hours":0.00054817729526096,"runTime":0.0069444444444444,"JobDescription":"fluent_test_2","GPU_Cost":0,"CPU_Cost":0.013888888888889,"Mem_Cost":5.4817729526096e-5,"App_Cost":0.13888888888889},{"EndDate":"2020\/07\/02","GPU_Hours":0,"App":"Fluent","JobName":"cubevnc","JobId":"2956","Queue":"q_sw_expr","Cluster":"aip","CPU_Hours":0.012222222222222,"User":"simforgetest1","Mem_GB_Hours":0.00040854348076714,"runTime":0.0061111111111111,"JobDescription":"fluent_test_3","GPU_Cost":0,"CPU_Cost":0.0036666666666667,"Mem_Cost":4.0854348076714e-5,"App_Cost":0.061111111111111},{"EndDate":"2020\/07\/03","GPU_Hours":0,"App":"StarCCM","JobName":"cubevnc","JobId":"2957","Queue":"q_x86_expr","Cluster":"aip","CPU_Hours":335.21666666667,"User":"simforgetest1","Mem_GB_Hours":16.637242136002,"runTime":16.760833333333,"JobDescription":"starccm_test_3","GPU_Cost":0,"CPU_Cost":167.60833333333,"Mem_Cost":1.6637242136002,"App_Cost":1676.0833333333},{"EndDate":"2020\/07\/03","GPU_Hours":0,"App":"ParaView","JobName":"cubevnc","JobId":"2779","Queue":"q_x86_expr","Cluster":"aip","CPU_Hours":52.98,"User":"simforgetest1","Mem_GB_Hours":24.751512908936,"runTime":52.98,"JobDescription":"pv","GPU_Cost":0,"CPU_Cost":26.49,"Mem_Cost":2.4751512908936,"App_Cost":26.49},{"EndDate":"2020\/07\/03","GPU_Hours":0,"App":"Abaqus","JobName":"cubevnc","JobId":"2709","Queue":"q_x86_expr","Cluster":"aip","CPU_Hours":69.502777777778,"User":"simforgetest1","Mem_GB_Hours":42.134521261851,"runTime":69.502777777778,"JobDescription":"blow","GPU_Cost":0,"CPU_Cost":34.751388888889,"Mem_Cost":4.2134521261851,"App_Cost":347.51388888889},{"EndDate":"2020\/07\/03","GPU_Hours":0,"App":"Abaqus","JobName":"cubevnc","JobId":"2706","Queue":"q_x86_expr","Cluster":"aip","CPU_Hours":69.617777777778,"User":"simforgetest1","Mem_GB_Hours":40.915953776042,"runTime":69.617777777778,"JobDescription":"newtest01","GPU_Cost":0,"CPU_Cost":34.808888888889,"Mem_Cost":4.0915953776042,"App_Cost":348.08888888889},{"EndDate":"2020\/07\/03","GPU_Hours":0,"App":"Abaqus","JobName":"cubevnc","JobId":"2672","Queue":"q_x86_expr","Cluster":"aip","CPU_Hours":71.738055555556,"User":"simforgetest1","Mem_GB_Hours":37.289591461817,"runTime":71.738055555556,"JobDescription":"qiuxiao","GPU_Cost":0,"CPU_Cost":35.869027777778,"Mem_Cost":3.7289591461817,"App_Cost":358.69027777778},{"EndDate":"2020\/07\/03","GPU_Hours":0,"App":"Abaqus","JobName":"cubevnc","JobId":"2666","Queue":"q_x86_expr","Cluster":"aip","CPU_Hours":71.865,"User":"simforgetest1","Mem_GB_Hours":40.392536029816,"runTime":71.865,"JobDescription":"abatest01","GPU_Cost":0,"CPU_Cost":35.9325,"Mem_Cost":4.0392536029816,"App_Cost":359.325},{"EndDate":"2020\/07\/03","GPU_Hours":0,"App":"LSPrePost","JobName":"cubevnc","JobId":"2782","Queue":"q_x86_expr","Cluster":"aip","CPU_Hours":52.858055555556,"User":"simforgetest1","Mem_GB_Hours":14.059979842504,"runTime":52.858055555556,"JobDescription":"display01","GPU_Cost":0,"CPU_Cost":26.429027777778,"Mem_Cost":1.4059979842504,"App_Cost":0},{"EndDate":"2020\/07\/03","GPU_Hours":0,"App":"ParaView","JobName":"cubevnc","JobId":"2884","Queue":"q_x86_expr","Cluster":"aip","CPU_Hours":45.895833333333,"User":"simforgetest1","Mem_GB_Hours":15.168119112651,"runTime":45.895833333333,"JobDescription":"new02","GPU_Cost":0,"CPU_Cost":22.947916666667,"Mem_Cost":1.5168119112651,"App_Cost":22.947916666667},{"EndDate":"2020\/07\/03","GPU_Hours":0,"App":"Abaqus","JobName":"cubevnc","JobId":"2783","Queue":"q_x86_expr","Cluster":"aip","CPU_Hours":52.833055555556,"User":"simforgetest1","Mem_GB_Hours":26.316562889947,"runTime":52.833055555556,"JobDescription":"seal","GPU_Cost":0,"CPU_Cost":26.416527777778,"Mem_Cost":2.6316562889947,"App_Cost":264.16527777778},{"EndDate":"2020\/07\/03","GPU_Hours":0,"App":"Abaqus","JobName":"cubevnc","JobId":"2993","Queue":"q_x86_expr","Cluster":"aip","CPU_Hours":7.0497222222222,"User":"simforgetest1","Mem_GB_Hours":3.414117565155,"runTime":7.0497222222222,"JobDescription":"abaqussim03","GPU_Cost":0,"CPU_Cost":3.5248611111111,"Mem_Cost":0.3414117565155,"App_Cost":35.248611111111},{"EndDate":"2020\/07\/07","GPU_Hours":0,"App":"Fluent","JobName":"cubevnc","JobId":"3294","Queue":"q_x86_expr","Cluster":"aip","CPU_Hours":1.0866666666667,"User":"simforgetest1","Mem_GB_Hours":0.0079855834113227,"runTime":0.090555555555556,"JobDescription":"fluent_test","GPU_Cost":0,"CPU_Cost":0.54333333333333,"Mem_Cost":0.00079855834113227,"App_Cost":5.4333333333333},{"EndDate":"2020\/07\/07","GPU_Hours":0,"App":"Fluent","JobName":"cubevnc","JobId":"3295","Queue":"q_x86_expr","Cluster":"aip","CPU_Hours":0.00083333333333333,"User":"simforgetest1","Mem_GB_Hours":2.3914972941081e-5,"runTime":0.00083333333333333,"JobDescription":"fluent_test","GPU_Cost":0,"CPU_Cost":0.00041666666666667,"Mem_Cost":2.3914972941081e-6,"App_Cost":0.0041666666666667},{"EndDate":"2020\/07\/07","GPU_Hours":0,"App":"Fluent","JobName":"cubevnc","JobId":"3296","Queue":"q_x86_expr","Cluster":"aip","CPU_Hours":2.2333333333333,"User":"simforgetest1","Mem_GB_Hours":0.016387950049506,"runTime":0.18611111111111,"JobDescription":"fluent_test","GPU_Cost":0,"CPU_Cost":1.1166666666667,"Mem_Cost":0.0016387950049506,"App_Cost":11.166666666667},{"EndDate":"2020\/07\/07","GPU_Hours":0,"App":"Fluent","JobName":"cubevnc","JobId":"3297","Queue":"q_x86_expr","Cluster":"aip","CPU_Hours":0.013333333333333,"User":"simforgetest1","Mem_GB_Hours":3.7019517686632e-5,"runTime":0.0011111111111111,"JobDescription":"fluent_test","GPU_Cost":0,"CPU_Cost":0.0066666666666667,"Mem_Cost":3.7019517686632e-6,"App_Cost":0.066666666666667},{"EndDate":"2020\/07\/07","GPU_Hours":0,"App":"Fluent","JobName":"cubevnc","JobId":"3298","Queue":"q_x86_expr","Cluster":"aip","CPU_Hours":2.2566666666667,"User":"simforgetest1","Mem_GB_Hours":0.018396364847819,"runTime":0.18805555555556,"JobDescription":"fluent_test","GPU_Cost":0,"CPU_Cost":1.1283333333333,"Mem_Cost":0.0018396364847819,"App_Cost":11.283333333333},{"EndDate":"2020\/07\/07","GPU_Hours":0,"App":"Fluent","JobName":"cubevnc","JobId":"3299","Queue":"q_x86_expr","Cluster":"aip","CPU_Hours":12.06,"User":"simforgetest1","Mem_GB_Hours":0.089944095611572,"runTime":1.005,"JobDescription":"fluent_test","GPU_Cost":0,"CPU_Cost":6.03,"Mem_Cost":0.0089944095611572,"App_Cost":60.3},{"EndDate":"2020\/07\/09","GPU_Hours":0,"App":"ParaView","JobName":"cubevnc","JobId":"3322","Queue":"q_x86_expr","Cluster":"aip","CPU_Hours":30.969444444444,"User":"simforgetest1","Mem_GB_Hours":11.334733496772,"runTime":30.969444444444,"JobDescription":"pv","GPU_Cost":0,"CPU_Cost":15.484722222222,"Mem_Cost":1.1334733496772,"App_Cost":15.484722222222},{"EndDate":"2020\/07\/10","GPU_Hours":0,"App":"Fluent","JobName":"cubevnc","JobId":"3477","Queue":"q_x86_expr","Cluster":"aip","CPU_Hours":0.055555555555556,"User":"simforgetest1","Mem_GB_Hours":0.0013136333889431,"runTime":0.013888888888889,"JobDescription":"fluent_test_3","GPU_Cost":0,"CPU_Cost":0.027777777777778,"Mem_Cost":0.00013136333889431,"App_Cost":0.27777777777778},{"EndDate":"2020\/07\/10","GPU_Hours":0,"App":"Fluent","JobName":"cubevnc","JobId":"3479","Queue":"q_x86_expr","Cluster":"aip","CPU_Hours":0.032222222222222,"User":"simforgetest1","Mem_GB_Hours":0.00074417644076877,"runTime":0.0080555555555556,"JobDescription":"fluent_test_3","GPU_Cost":0,"CPU_Cost":0.016111111111111,"Mem_Cost":7.4417644076877e-5,"App_Cost":0.16111111111111},{"EndDate":"2020\/07\/10","GPU_Hours":0,"App":"StarCCM","JobName":"cubevnc","JobId":"3490","Queue":"q_x86_expr","Cluster":"aip","CPU_Hours":0.20861111111111,"User":"simforgetest1","Mem_GB_Hours":0.018841878043281,"runTime":0.20861111111111,"JobDescription":"starccm_test","GPU_Cost":0,"CPU_Cost":0.10430555555556,"Mem_Cost":0.0018841878043281,"App_Cost":1.0430555555556},{"EndDate":"2020\/07\/10","GPU_Hours":0,"App":"Fluent","JobName":"cubevnc","JobId":"3467","Queue":"q_x86_expr","Cluster":"aip","CPU_Hours":0.99527777777778,"User":"simforgetest1","Mem_GB_Hours":0.088975275887383,"runTime":0.99527777777778,"JobDescription":"fluent_test","GPU_Cost":0,"CPU_Cost":0.49763888888889,"Mem_Cost":0.0088975275887383,"App_Cost":4.9763888888889},{"EndDate":"2020\/07\/10","GPU_Hours":0,"App":"StarCCM","JobName":"cubevnc","JobId":"3493","Queue":"q_x86_expr","Cluster":"aip","CPU_Hours":0.13527777777778,"User":"simforgetest1","Mem_GB_Hours":0.012166763941447,"runTime":0.13527777777778,"JobDescription":"starccm_test","GPU_Cost":0,"CPU_Cost":0.067638888888889,"Mem_Cost":0.0012166763941447,"App_Cost":0.67638888888889},{"EndDate":"2020\/07\/10","GPU_Hours":0,"App":"StarCCM","JobName":"cubevnc","JobId":"3496","Queue":"q_x86_expr","Cluster":"aip","CPU_Hours":0.0125,"User":"simforgetest1","Mem_GB_Hours":0.0010522365570068,"runTime":0.0125,"JobDescription":"starccm_test","GPU_Cost":0,"CPU_Cost":0.00625,"Mem_Cost":0.00010522365570068,"App_Cost":0.0625},{"EndDate":"2020\/07\/10","GPU_Hours":0,"App":"Fluent","JobName":"cubevnc","JobId":"3472","Queue":"q_x86_expr","Cluster":"aip","CPU_Hours":2.0011111111111,"User":"simforgetest1","Mem_GB_Hours":0.083298204210069,"runTime":1.0005555555556,"JobDescription":"fluent_test_2","GPU_Cost":0,"CPU_Cost":1.0005555555556,"Mem_Cost":0.0083298204210069,"App_Cost":10.005555555556},{"EndDate":"2020\/07\/10","GPU_Hours":0,"App":"PointWise","JobName":"cubevnc","JobId":"3498","Queue":"q_x86_expr","Cluster":"aip","CPU_Hours":0.0013888888888889,"User":"simforgetest1","Mem_GB_Hours":1.3711717393663e-5,"runTime":0.0013888888888889,"JobDescription":"PW_test","GPU_Cost":0,"CPU_Cost":0.00069444444444444,"Mem_Cost":1.3711717393663e-6,"App_Cost":0.0069444444444444},{"EndDate":"2020\/07\/10","GPU_Hours":0,"App":"Fluent","JobName":"cubevnc","JobId":"3483","Queue":"q_x86_expr","Cluster":"aip","CPU_Hours":4.0044444444444,"User":"simforgetest1","Mem_GB_Hours":0.10424167209201,"runTime":1.0011111111111,"JobDescription":"fluent_test_3","GPU_Cost":0,"CPU_Cost":2.0022222222222,"Mem_Cost":0.010424167209201,"App_Cost":20.022222222222},{"EndDate":"2020\/07\/10","GPU_Hours":0,"App":"PointWise","JobName":"cubevnc","JobId":"3506","Queue":"q_x86_expr","Cluster":"aip","CPU_Hours":0.0011111111111111,"User":"simforgetest1","Mem_GB_Hours":1.1096530490451e-5,"runTime":0.0011111111111111,"JobDescription":"PW_test","GPU_Cost":0,"CPU_Cost":0.00055555555555556,"Mem_Cost":1.1096530490451e-6,"App_Cost":0.0055555555555556},{"EndDate":"2020\/07\/10","GPU_Hours":0,"App":"Abaqus2017","JobName":"Job-141302","JobId":"3515","Queue":"q_x86_share","Cluster":"aip","CPU_Hours":0.013333333333333,"User":"simforgetest1","Mem_GB_Hours":6.150139702691e-6,"runTime":0.00055555555555556,"JobDescription":"Job-141302-qiuxiao","GPU_Cost":0,"CPU_Cost":0.0066666666666667,"Mem_Cost":6.150139702691e-7,"App_Cost":0.066666666666667},{"EndDate":"2020\/07\/10","GPU_Hours":0,"App":"Abaqus2017","JobName":"Job-142343","JobId":"3516","Queue":"q_x86_share","Cluster":"aip","CPU_Hours":0.0066666666666667,"User":"simforgetest1","Mem_GB_Hours":3.0761294894748e-6,"runTime":0.00027777777777778,"JobDescription":"Job-142343-qiuxiao","GPU_Cost":0,"CPU_Cost":0.0033333333333333,"Mem_Cost":3.0761294894748e-7,"App_Cost":0.033333333333333},{"EndDate":"2020\/07\/10","GPU_Hours":0,"App":"Abaqus2017","JobName":"Job-142500","JobId":"3517","Queue":"q_x86_expr","Cluster":"aip","CPU_Hours":1.2566666666667,"User":"simforgetest1","Mem_GB_Hours":0.001159700817532,"runTime":0.10472222222222,"JobDescription":"Job-142500-qiuxiao","GPU_Cost":0,"CPU_Cost":0.62833333333333,"Mem_Cost":0.0001159700817532,"App_Cost":6.2833333333333},{"EndDate":"2020\/07\/10","GPU_Hours":0,"App":"Abaqus2017","JobName":"Job-142926","JobId":"3520","Queue":"q_x86_expr","Cluster":"aip","CPU_Hours":0.18444444444444,"User":"simforgetest1","Mem_GB_Hours":0.00051063749525282,"runTime":0.046111111111111,"JobDescription":"Job-142926-Squeeze","GPU_Cost":0,"CPU_Cost":0.092222222222222,"Mem_Cost":5.1063749525282e-5,"App_Cost":0.92222222222222},{"EndDate":"2020\/07\/10","GPU_Hours":0,"App":"Abaqus2017","JobName":"Job-143412","JobId":"3522","Queue":"q_x86_expr","Cluster":"aip","CPU_Hours":0.13888888888889,"User":"simforgetest1","Mem_GB_Hours":0.00038756264580621,"runTime":0.034722222222222,"JobDescription":"Job-143412-explicit","GPU_Cost":0,"CPU_Cost":0.069444444444444,"Mem_Cost":3.8756264580621e-5,"App_Cost":0.69444444444444},{"EndDate":"2020\/07\/10","GPU_Hours":0,"App":"Abaqus","JobName":"cubevnc","JobId":"3519","Queue":"q_x86_expr","Cluster":"aip","CPU_Hours":0.24277777777778,"User":"simforgetest1","Mem_GB_Hours":0.14204978307088,"runTime":0.24277777777778,"JobDescription":"abaqus_test2","GPU_Cost":0,"CPU_Cost":0.12138888888889,"Mem_Cost":0.014204978307088,"App_Cost":1.2138888888889},{"EndDate":"2020\/07\/10","GPU_Hours":0,"App":"Abaqus","JobName":"cubevnc","JobId":"3521","Queue":"q_x86_expr","Cluster":"aip","CPU_Hours":0.19083333333333,"User":"simforgetest1","Mem_GB_Hours":0.10750026384989,"runTime":0.19083333333333,"JobDescription":"abaqus_test3","GPU_Cost":0,"CPU_Cost":0.095416666666667,"Mem_Cost":0.010750026384989,"App_Cost":0.95416666666667},{"EndDate":"2020\/07\/10","GPU_Hours":0,"App":"LS-DYNA","JobName":"\/home\/export\/base\/nsccwuxi_amd\/simforgetest1\/online1\/lsdyna\/car2car\/Caravan-V03c_ver10-1200k-car1.k","JobId":"3528","Queue":"q_x86_expr","Cluster":"aip","CPU_Hours":0.033333333333333,"User":"simforgetest1","Mem_GB_Hours":0.00018609364827474,"runTime":0.016666666666667,"JobDescription":"Caravan-V03c_ver10-1200k-car1.k","GPU_Cost":0,"CPU_Cost":0.016666666666667,"Mem_Cost":1.8609364827474e-5,"App_Cost":0.16666666666667},{"EndDate":"2020\/07\/10","GPU_Hours":0,"App":"LSPrePost","JobName":"cubevnc","JobId":"3527","Queue":"q_x86_expr","Cluster":"aip","CPU_Hours":0.055277777777778,"User":"simforgetest1","Mem_GB_Hours":0.027803365919325,"runTime":0.055277777777778,"JobDescription":"ls_test","GPU_Cost":0,"CPU_Cost":0.027638888888889,"Mem_Cost":0.0027803365919325,"App_Cost":0},{"EndDate":"2020\/07\/10","GPU_Hours":0,"App":"Abaqus","JobName":"cubevnc","JobId":"3513","Queue":"q_x86_expr","Cluster":"aip","CPU_Hours":0.65333333333333,"User":"simforgetest1","Mem_GB_Hours":0.33753545125326,"runTime":0.65333333333333,"JobDescription":"abaqus_test1","GPU_Cost":0,"CPU_Cost":0.32666666666667,"Mem_Cost":0.033753545125326,"App_Cost":3.2666666666667},{"EndDate":"2020\/07\/10","GPU_Hours":0,"App":"LS-DYNA","JobName":"\/home\/export\/online1\/simforgetest1\/lsdyna\/car2car\/Caravan-V03c_ver10-1200k-car1.k","JobId":"3532","Queue":"q_x86_expr","Cluster":"aip","CPU_Hours":0.045,"User":"simforgetest1","Mem_GB_Hours":0.00025114059448242,"runTime":0.0225,"JobDescription":"Caravan-V03c_ver10-1200k-car1.k","GPU_Cost":0,"CPU_Cost":0.0225,"Mem_Cost":2.5114059448242e-5,"App_Cost":0.225},{"EndDate":"2020\/07\/10","GPU_Hours":0,"App":"LS-DYNA","JobName":"\/home\/export\/online1\/simforgetest1\/lsdyna\/car2car\/Caravan-V03c_ver10-1200k-car1.k","JobId":"3535","Queue":"q_x86_expr","Cluster":"aip","CPU_Hours":0.063333333333333,"User":"simforgetest1","Mem_GB_Hours":0.00017672856648763,"runTime":0.015833333333333,"JobDescription":"Caravan-V03c_ver10-1200k-car1.k","GPU_Cost":0,"CPU_Cost":0.031666666666667,"Mem_Cost":1.7672856648763e-5,"App_Cost":0.31666666666667},{"EndDate":"2020\/07\/12","GPU_Hours":0,"App":"Abaqus","JobName":"cubevnc","JobId":"3531","Queue":"q_x86_expr","Cluster":"aip","CPU_Hours":42.218055555556,"User":"simforgetest1","Mem_GB_Hours":22.392589113447,"runTime":42.218055555556,"JobDescription":"abaqus_test2","GPU_Cost":0,"CPU_Cost":21.109027777778,"Mem_Cost":2.2392589113447,"App_Cost":211.09027777778},{"EndDate":"2020\/07\/12","GPU_Hours":0,"App":"ParaView","JobName":"cubevnc","JobId":"3512","Queue":"q_x86_expr","Cluster":"aip","CPU_Hours":42.891111111111,"User":"simforgetest1","Mem_GB_Hours":15.422501118978,"runTime":42.891111111111,"JobDescription":"pv_test3","GPU_Cost":0,"CPU_Cost":21.445555555556,"Mem_Cost":1.5422501118978,"App_Cost":21.445555555556},{"EndDate":"2020\/07\/12","GPU_Hours":0,"App":"ParaView","JobName":"cubevnc","JobId":"3511","Queue":"q_x86_expr","Cluster":"aip","CPU_Hours":42.901388888889,"User":"simforgetest1","Mem_GB_Hours":0.41454016897413,"runTime":42.901388888889,"JobDescription":"pv_test2","GPU_Cost":0,"CPU_Cost":21.450694444444,"Mem_Cost":0.041454016897413,"App_Cost":21.450694444444},{"EndDate":"2020\/07\/12","GPU_Hours":0,"App":"ParaView","JobName":"cubevnc","JobId":"3508","Queue":"q_x86_expr","Cluster":"aip","CPU_Hours":43.404722222222,"User":"simforgetest1","Mem_GB_Hours":15.645926748912,"runTime":43.404722222222,"JobDescription":"pv_test","GPU_Cost":0,"CPU_Cost":21.702361111111,"Mem_Cost":1.5645926748912,"App_Cost":21.702361111111},{"EndDate":"2020\/07\/12","GPU_Hours":0,"App":"TankSim","JobName":"cubevnc","JobId":"3534","Queue":"q_x86_expr","Cluster":"aip","CPU_Hours":42.017777777778,"User":"simforgetest1","Mem_GB_Hours":7.8576565551758,"runTime":42.017777777778,"JobDescription":"tank_sim_test","GPU_Cost":0,"CPU_Cost":21.008888888889,"Mem_Cost":0.78576565551758,"App_Cost":42.017777777778},{"EndDate":"2020\/07\/12","GPU_Hours":0,"App":"LSPrePost","JobName":"cubevnc","JobId":"3530","Queue":"q_x86_expr","Cluster":"aip","CPU_Hours":42.227777777778,"User":"simforgetest1","Mem_GB_Hours":72.867176246643,"runTime":42.227777777778,"JobDescription":"ls_test","GPU_Cost":0,"CPU_Cost":21.113888888889,"Mem_Cost":7.2867176246643,"App_Cost":0},{"EndDate":"2020\/07\/12","GPU_Hours":0,"App":"ICEM-CFD","JobName":"cubevnc","JobId":"3503","Queue":"q_x86_expr","Cluster":"aip","CPU_Hours":45.245277777778,"User":"simforgetest1","Mem_GB_Hours":19.658629965252,"runTime":45.245277777778,"JobDescription":"icemcfd_test_2","GPU_Cost":0,"CPU_Cost":22.622638888889,"Mem_Cost":1.9658629965252,"App_Cost":226.22638888889},{"EndDate":"2020\/07\/12","GPU_Hours":0,"App":"ICEM-CFD","JobName":"cubevnc","JobId":"3499","Queue":"q_x86_expr","Cluster":"aip","CPU_Hours":45.439166666667,"User":"simforgetest1","Mem_GB_Hours":13.136145807902,"runTime":45.439166666667,"JobDescription":"icemcfd_test","GPU_Cost":0,"CPU_Cost":22.719583333333,"Mem_Cost":1.3136145807902,"App_Cost":227.19583333333},{"EndDate":"2020\/07\/12","GPU_Hours":0,"App":"StarCCM","JobName":"cubevnc","JobId":"3497","Queue":"q_x86_expr","Cluster":"aip","CPU_Hours":182.83555555556,"User":"simforgetest1","Mem_GB_Hours":46.387694066366,"runTime":45.708888888889,"JobDescription":"starccm_test_3","GPU_Cost":0,"CPU_Cost":91.417777777778,"Mem_Cost":4.6387694066366,"App_Cost":914.17777777778},{"EndDate":"2020\/07\/12","GPU_Hours":0,"App":"StarCCM","JobName":"cubevnc","JobId":"3492","Queue":"q_x86_expr","Cluster":"aip","CPU_Hours":91.889444444444,"User":"simforgetest1","Mem_GB_Hours":46.072841087977,"runTime":45.944722222222,"JobDescription":"starccm_test_2","GPU_Cost":0,"CPU_Cost":45.944722222222,"Mem_Cost":4.6072841087977,"App_Cost":459.44722222222},{"EndDate":"2020\/07\/13","GPU_Hours":0,"App":"PointWise","JobName":"cubevnc","JobId":"4075","Queue":"local","Cluster":"aip","CPU_Hours":0.045833333333333,"User":"simforgetest1","Mem_GB_Hours":0.012503178914388,"runTime":0.045833333333333,"JobDescription":"PW_test","GPU_Cost":0,"CPU_Cost":0.022916666666667,"Mem_Cost":0.0012503178914388,"App_Cost":0.22916666666667},{"EndDate":"2020\/07\/14","GPU_Hours":0,"App":"Fluent","JobName":"cubevnc","JobId":"4197","Queue":"q_x86_expr","Cluster":"aip","CPU_Hours":0.41111111111111,"User":"simforgetest1","Mem_GB_Hours":0.008668581644694,"runTime":0.10277777777778,"JobDescription":"fluent_test_3","GPU_Cost":0,"CPU_Cost":0.20555555555556,"Mem_Cost":0.0008668581644694,"App_Cost":2.0555555555556},{"EndDate":"2020\/07\/15","GPU_Hours":0,"App":"StarCCM","JobName":"cubevnc","JobId":"4243","Queue":"local","Cluster":"aip","CPU_Hours":1.9066666666667,"User":"simforgetest1","Mem_GB_Hours":0.0070572768317329,"runTime":0.079444444444444,"JobDescription":"starccm_test_4","GPU_Cost":0,"CPU_Cost":0.95333333333333,"Mem_Cost":0.00070572768317329,"App_Cost":9.5333333333333},{"EndDate":"2020\/07\/15","GPU_Hours":0,"App":"Fluent","JobName":"cubevnc","JobId":"4245","Queue":"q_x86_share","Cluster":"aip","CPU_Hours":0.28666666666667,"User":"simforgetest1","Mem_GB_Hours":0.0003276538848877,"runTime":0.011944444444444,"JobDescription":"fluent_test_5","GPU_Cost":0,"CPU_Cost":0.14333333333333,"Mem_Cost":3.276538848877e-5,"App_Cost":1.4333333333333},{"EndDate":"2020\/07\/15","GPU_Hours":0,"App":"StarCCM","JobName":"cubevnc","JobId":"4244","Queue":"local","Cluster":"aip","CPU_Hours":0.095555555555556,"User":"simforgetest1","Mem_GB_Hours":0.084836247762044,"runTime":0.095555555555556,"JobDescription":"starccm_test_5","GPU_Cost":0,"CPU_Cost":0.047777777777778,"Mem_Cost":0.0084836247762044,"App_Cost":0.47777777777778},{"EndDate":"2020\/07\/15","GPU_Hours":0,"App":"ICEM-CFD","JobName":"cubevnc","JobId":"4214","Queue":"local","Cluster":"aip","CPU_Hours":16.634722222222,"User":"simforgetest1","Mem_GB_Hours":4.0552465756734,"runTime":16.634722222222,"JobDescription":"icemcfd_test_4","GPU_Cost":0,"CPU_Cost":8.3173611111111,"Mem_Cost":0.40552465756734,"App_Cost":83.173611111111},{"EndDate":"2020\/07\/15","GPU_Hours":0,"App":"StarCCM","JobName":"cubevnc","JobId":"4201","Queue":"local","Cluster":"aip","CPU_Hours":24.930555555556,"User":"simforgetest1","Mem_GB_Hours":23.91219774882,"runTime":24.930555555556,"JobDescription":"starcc","GPU_Cost":0,"CPU_Cost":12.465277777778,"Mem_Cost":2.391219774882,"App_Cost":124.65277777778},{"EndDate":"2020\/07\/15","GPU_Hours":0,"App":"Fluent","JobName":"cubevnc","JobId":"4246","Queue":"q_x86_share","Cluster":"aip","CPU_Hours":1.9333333333333,"User":"simforgetest1","Mem_GB_Hours":0.0022103733486599,"runTime":0.080555555555556,"JobDescription":"fluent_test_5","GPU_Cost":0,"CPU_Cost":0.96666666666667,"Mem_Cost":0.00022103733486599,"App_Cost":9.6666666666667},{"EndDate":"2020\/07\/15","GPU_Hours":0,"App":"Fluent","JobName":"cubevnc","JobId":"4247","Queue":"q_x86_expr","Cluster":"aip","CPU_Hours":0.29111111111111,"User":"simforgetest1","Mem_GB_Hours":0.0060439003838433,"runTime":0.072777777777778,"JobDescription":"fluent_test_6","GPU_Cost":0,"CPU_Cost":0.14555555555556,"Mem_Cost":0.00060439003838433,"App_Cost":1.4555555555556},{"EndDate":"2020\/07\/15","GPU_Hours":0,"App":"","JobName":"swof_\/home\/export\/base\/nsccwuxi_amd\/simforgetest1\/online1\/ZHL\/SimforgeTest\/SWOF\/hotRoom\/hotRoom_Mesh286","JobId":"4248","Queue":"q_x86_share","Cluster":"aip","CPU_Hours":0.00027777777777778,"User":"simforgetest1","Mem_GB_Hours":3.2160017225477e-6,"runTime":0.00027777777777778,"JobDescription":"","GPU_Cost":0,"CPU_Cost":0.00013888888888889,"Mem_Cost":3.2160017225477e-7,"App_Cost":0},{"EndDate":"2020\/07\/15","GPU_Hours":0,"App":"","JobName":"swof_\/home\/export\/base\/nsccwuxi_amd\/simforgetest1\/online1\/ZHL\/SimforgeTest\/SWOF\/hotRoom\/hotRoom_Mesh9429","JobId":"4249","Queue":"q_x86_expr","Cluster":"aip","CPU_Hours":0.025555555555556,"User":"simforgetest1","Mem_GB_Hours":0.00029587215847439,"runTime":0.025555555555556,"JobDescription":"","GPU_Cost":0,"CPU_Cost":0.012777777777778,"Mem_Cost":2.9587215847439e-5,"App_Cost":0},{"EndDate":"2020\/07\/15","GPU_Hours":0,"App":"TankSim","JobName":"cubevnc","JobId":"4254","Queue":"local","Cluster":"aip","CPU_Hours":0.095277777777778,"User":"simforgetest1","Mem_GB_Hours":0.016256654527452,"runTime":0.095277777777778,"JobDescription":"betatest01","GPU_Cost":0,"CPU_Cost":0.047638888888889,"Mem_Cost":0.0016256654527452,"App_Cost":0.095277777777778},{"EndDate":"2020\/07\/15","GPU_Hours":0,"App":"StarCCM","JobName":"cubevnc","JobId":"4265","Queue":"local","Cluster":"aip","CPU_Hours":0.026111111111111,"User":"simforgetest1","Mem_GB_Hours":0.019599369896783,"runTime":0.026111111111111,"JobDescription":"starccm_test_6","GPU_Cost":0,"CPU_Cost":0.013055555555556,"Mem_Cost":0.0019599369896783,"App_Cost":0.13055555555556},{"EndDate":"2020\/07\/15","GPU_Hours":0,"App":"StarCCM","JobName":"cubevnc","JobId":"4266","Queue":"local","Cluster":"aip","CPU_Hours":2.2666666666667,"User":"simforgetest1","Mem_GB_Hours":0.0084801991780599,"runTime":0.094444444444444,"JobDescription":"starccm_test_6","GPU_Cost":0,"CPU_Cost":1.1333333333333,"Mem_Cost":0.00084801991780599,"App_Cost":11.333333333333},{"EndDate":"2020\/07\/15","GPU_Hours":0,"App":"StarCCM","JobName":"cubevnc","JobId":"4267","Queue":"local","Cluster":"aip","CPU_Hours":0.086111111111111,"User":"simforgetest1","Mem_GB_Hours":0.0077224201626248,"runTime":0.086111111111111,"JobDescription":"starccm_test_6","GPU_Cost":0,"CPU_Cost":0.043055555555556,"Mem_Cost":0.00077224201626248,"App_Cost":0.43055555555556},{"EndDate":"2020\/07\/15","GPU_Hours":0,"App":"TankSim","JobName":"cubevnc","JobId":"4263","Queue":"local","Cluster":"aip","CPU_Hours":2.7513888888889,"User":"simforgetest1","Mem_GB_Hours":0.48354811668396,"runTime":2.7513888888889,"JobDescription":"tank_sim_test_2","GPU_Cost":0,"CPU_Cost":1.3756944444444,"Mem_Cost":0.048354811668396,"App_Cost":2.7513888888889},{"EndDate":"2020\/07\/15","GPU_Hours":0,"App":"Tanksimulator-Calculix","JobName":"","JobId":"4288","Queue":"local","Cluster":"aip","CPU_Hours":0.64472222222222,"User":"simforgetest1","Mem_GB_Hours":0.010727990468343,"runTime":0.64472222222222,"JobDescription":"testmonpoint","GPU_Cost":0,"CPU_Cost":0.32236111111111,"Mem_Cost":0.0010727990468343,"App_Cost":0},{"EndDate":"2020\/07\/15","GPU_Hours":0,"App":"Tanksimulator-Openfoam","JobName":"","JobId":"4289","Queue":"local","Cluster":"aip","CPU_Hours":0.63972222222222,"User":"simforgetest1","Mem_GB_Hours":0.0069842720031738,"runTime":0.63972222222222,"JobDescription":"testmonpoint","GPU_Cost":0,"CPU_Cost":0.31986111111111,"Mem_Cost":0.00069842720031738,"App_Cost":0},{"EndDate":"2020\/07\/15","GPU_Hours":0,"App":"TankSim","JobName":"cubevnc","JobId":"4284","Queue":"local","Cluster":"aip","CPU_Hours":0.72277777777778,"User":"simforgetest1","Mem_GB_Hours":0.12432117462158,"runTime":0.72277777777778,"JobDescription":"tanksim01","GPU_Cost":0,"CPU_Cost":0.36138888888889,"Mem_Cost":0.012432117462158,"App_Cost":0.72277777777778},{"EndDate":"2020\/07\/15","GPU_Hours":0,"App":"TankSim","JobName":"cubevnc","JobId":"4296","Queue":"local","Cluster":"aip","CPU_Hours":0.81138888888889,"User":"simforgetest1","Mem_GB_Hours":0.14368241733975,"runTime":0.81138888888889,"JobDescription":"tanksim01","GPU_Cost":0,"CPU_Cost":0.40569444444444,"Mem_Cost":0.014368241733975,"App_Cost":0.81138888888889},{"EndDate":"2020\/07\/15","GPU_Hours":0,"App":"TankSim","JobName":"cubevnc","JobId":"4299","Queue":"local","Cluster":"aip","CPU_Hours":0.45027777777778,"User":"simforgetest1","Mem_GB_Hours":0.07361432923211,"runTime":0.45027777777778,"JobDescription":"tanksim01","GPU_Cost":0,"CPU_Cost":0.22513888888889,"Mem_Cost":0.007361432923211,"App_Cost":0.45027777777778},{"EndDate":"2020\/07\/16","GPU_Hours":0,"App":"StarCCM","JobName":"cubevnc","JobId":"4506","Queue":"local","Cluster":"aip","CPU_Hours":0.38333333333333,"User":"simforgetest1","Mem_GB_Hours":0.024566041098701,"runTime":0.031944444444444,"JobDescription":"starccm_testz_9","GPU_Cost":0,"CPU_Cost":0.19166666666667,"Mem_Cost":0.0024566041098701,"App_Cost":1.9166666666667},{"EndDate":"2020\/07\/16","GPU_Hours":0,"App":"StarCCM","JobName":"cubevnc","JobId":"4507","Queue":"local","Cluster":"aip","CPU_Hours":0.36,"User":"simforgetest1","Mem_GB_Hours":0.022439002990723,"runTime":0.03,"JobDescription":"starccm_testz_9","GPU_Cost":0,"CPU_Cost":0.18,"Mem_Cost":0.0022439002990723,"App_Cost":1.8},{"EndDate":"2020\/07\/16","GPU_Hours":0,"App":"TankSim","JobName":"cubevnc","JobId":"4490","Queue":"local","Cluster":"aip","CPU_Hours":1.7088888888889,"User":"simforgetest1","Mem_GB_Hours":0.31954313490126,"runTime":1.7088888888889,"JobDescription":"tanksim01","GPU_Cost":0,"CPU_Cost":0.85444444444444,"Mem_Cost":0.031954313490126,"App_Cost":1.7088888888889},{"EndDate":"2020\/07\/16","GPU_Hours":0,"App":"StarCCM","JobName":"cubevnc","JobId":"4511","Queue":"local","Cluster":"aip","CPU_Hours":0.32,"User":"simforgetest1","Mem_GB_Hours":0.017953389485677,"runTime":0.026666666666667,"JobDescription":"starccm_test","GPU_Cost":0,"CPU_Cost":0.16,"Mem_Cost":0.0017953389485677,"App_Cost":1.6},{"EndDate":"2020\/07\/16","GPU_Hours":0,"App":"StarCCM2","JobName":"cubevnc","JobId":"4515","Queue":"q_x86_expr","Cluster":"aip","CPU_Hours":0.36666666666667,"User":"simforgetest1","Mem_GB_Hours":0.023632346259223,"runTime":0.030555555555556,"JobDescription":"starccm_test","GPU_Cost":0,"CPU_Cost":0.18333333333333,"Mem_Cost":0.0023632346259223,"App_Cost":1.8333333333333},{"EndDate":"2020\/07\/16","GPU_Hours":0,"App":"StarCCM","JobName":"cubevnc","JobId":"4519","Queue":"local","Cluster":"aip","CPU_Hours":0.15,"User":"simforgetest1","Mem_GB_Hours":0.1067590713501,"runTime":0.15,"JobDescription":"starccm_test_2","GPU_Cost":0,"CPU_Cost":0.075,"Mem_Cost":0.01067590713501,"App_Cost":0.75},{"EndDate":"2020\/07\/16","GPU_Hours":0,"App":"StarCCM2","JobName":"cubevnc","JobId":"4529","Queue":"q_x86_expr","Cluster":"aip","CPU_Hours":0.29333333333333,"User":"simforgetest1","Mem_GB_Hours":0.0018157280815972,"runTime":0.024444444444444,"JobDescription":"starccm2_test","GPU_Cost":0,"CPU_Cost":0.14666666666667,"Mem_Cost":0.00018157280815972,"App_Cost":1.4666666666667},{"EndDate":"2020\/07\/16","GPU_Hours":0,"App":"","JobName":"swof_\/home\/export\/base\/nsccwuxi_amd\/simforgetest1\/online1\/RenHu\/OF\/tank\/tank_Mesh2786","JobId":"4530","Queue":"q_x86_share","Cluster":"aip","CPU_Hours":0.021666666666667,"User":"simforgetest1","Mem_GB_Hours":0.00040301005045573,"runTime":0.021666666666667,"JobDescription":"","GPU_Cost":0,"CPU_Cost":0.010833333333333,"Mem_Cost":4.0301005045573e-5,"App_Cost":0},{"EndDate":"2020\/07\/16","GPU_Hours":0,"App":"","JobName":"swof_\/home\/export\/base\/nsccwuxi_amd\/simforgetest1\/online1\/RenHu\/OF\/tank_Check37479","JobId":"4532","Queue":"q_x86_expr","Cluster":"aip","CPU_Hours":0.013888888888889,"User":"simforgetest1","Mem_GB_Hours":0.00015470716688368,"runTime":0.013888888888889,"JobDescription":"","GPU_Cost":0,"CPU_Cost":0.0069444444444444,"Mem_Cost":1.5470716688368e-5,"App_Cost":0},{"EndDate":"2020\/07\/16","GPU_Hours":0,"App":"StarCCM2","JobName":"cubevnc","JobId":"4534","Queue":"q_x86_expr","Cluster":"aip","CPU_Hours":0.14333333333333,"User":"simforgetest1","Mem_GB_Hours":0.027875321706136,"runTime":0.035833333333333,"JobDescription":"starccm2_test_2","GPU_Cost":0,"CPU_Cost":0.071666666666667,"Mem_Cost":0.0027875321706136,"App_Cost":0.71666666666667},{"EndDate":"2020\/07\/16","GPU_Hours":0,"App":"Tanksimulator-MeshGenerate","JobName":"","JobId":"4536","Queue":"local","Cluster":"aip","CPU_Hours":0.084166666666667,"User":"simforgetest1","Mem_GB_Hours":0.050670359929403,"runTime":0.084166666666667,"JobDescription":"testmonpoint","GPU_Cost":0,"CPU_Cost":0.042083333333333,"Mem_Cost":0.0050670359929403,"App_Cost":0},{"EndDate":"2020\/07\/16","GPU_Hours":0,"App":"Tanksimulator-MeshGenerate","JobName":"","JobId":"4539","Queue":"local","Cluster":"aip","CPU_Hours":0.036388888888889,"User":"simforgetest1","Mem_GB_Hours":0.0095487795935737,"runTime":0.036388888888889,"JobDescription":"Study1","GPU_Cost":0,"CPU_Cost":0.018194444444444,"Mem_Cost":0.00095487795935737,"App_Cost":0},{"EndDate":"2020\/07\/16","GPU_Hours":0,"App":"Fluent","JobName":"cubevnc","JobId":"4513","Queue":"q_x86_expr","Cluster":"aip","CPU_Hours":0.99333333333333,"User":"simforgetest1","Mem_GB_Hours":0.083973922729492,"runTime":0.99333333333333,"JobDescription":"fluent4","GPU_Cost":0,"CPU_Cost":0.49666666666667,"Mem_Cost":0.0083973922729492,"App_Cost":4.9666666666667},{"EndDate":"2020\/07\/16","GPU_Hours":0,"App":"","JobName":"swof_\/home\/export\/base\/nsccwuxi_amd\/simforgetest1\/online1\/RenHu\/OF\/tank_Setfields80894","JobId":"4548","Queue":"q_x86_share","Cluster":"aip","CPU_Hours":0.0094444444444444,"User":"simforgetest1","Mem_GB_Hours":0.00017577913072374,"runTime":0.0094444444444444,"JobDescription":"","GPU_Cost":0,"CPU_Cost":0.0047222222222222,"Mem_Cost":1.7577913072374e-5,"App_Cost":0},{"EndDate":"2020\/07\/16","GPU_Hours":0,"App":"","JobName":"swof_\/home\/export\/base\/nsccwuxi_amd\/simforgetest1\/online1\/RenHu\/OF\/tank_Decompose9626","JobId":"4549","Queue":"q_x86_share","Cluster":"aip","CPU_Hours":0.029166666666667,"User":"simforgetest1","Mem_GB_Hours":0.00054284731547038,"runTime":0.029166666666667,"JobDescription":"","GPU_Cost":0,"CPU_Cost":0.014583333333333,"Mem_Cost":5.4284731547038e-5,"App_Cost":0},{"EndDate":"2020\/07\/16","GPU_Hours":0,"App":"","JobName":"swof_\/home\/export\/base\/nsccwuxi_amd\/simforgetest1\/online1\/RenHu\/OF\/tank_Decompose76790","JobId":"4550","Queue":"q_x86_share","Cluster":"aip","CPU_Hours":0.028333333333333,"User":"simforgetest1","Mem_GB_Hours":0.00052776972452799,"runTime":0.028333333333333,"JobDescription":"","GPU_Cost":0,"CPU_Cost":0.014166666666667,"Mem_Cost":5.2776972452799e-5,"App_Cost":0},{"EndDate":"2020\/07\/16","GPU_Hours":0,"App":"","JobName":"swof_\/home\/export\/base\/nsccwuxi_amd\/simforgetest1\/online1\/RenHu\/OF\/tank_Setfields11026","JobId":"4551","Queue":"q_x86_share","Cluster":"aip","CPU_Hours":0.01,"User":"simforgetest1","Mem_GB_Hours":0.00018611907958984,"runTime":0.01,"JobDescription":"","GPU_Cost":0,"CPU_Cost":0.005,"Mem_Cost":1.8611907958984e-5,"App_Cost":0},{"EndDate":"2020\/07\/16","GPU_Hours":0,"App":"","JobName":"swof_\/home\/export\/base\/nsccwuxi_amd\/simforgetest1\/online1\/RenHu\/OF\/tank_Decompose6233","JobId":"4552","Queue":"q_x86_share","Cluster":"aip","CPU_Hours":0.035833333333333,"User":"simforgetest1","Mem_GB_Hours":0,"runTime":0.035833333333333,"JobDescription":"","GPU_Cost":0,"CPU_Cost":0.017916666666667,"Mem_Cost":0,"App_Cost":0},{"EndDate":"2020\/07\/16","GPU_Hours":0,"App":"","JobName":"swof_\/home\/export\/base\/nsccwuxi_amd\/simforgetest1\/online1\/RenHu\/OF\/tank_Calculate62150","JobId":"4555","Queue":"q_x86_share","Cluster":"aip","CPU_Hours":0.25,"User":"simforgetest1","Mem_GB_Hours":0,"runTime":0.020833333333333,"JobDescription":"","GPU_Cost":0,"CPU_Cost":0.125,"Mem_Cost":0,"App_Cost":0},{"EndDate":"2020\/07\/16","GPU_Hours":0,"App":"","JobName":"swof_\/home\/export\/base\/nsccwuxi_amd\/simforgetest1\/online1\/RenHu\/OF\/tank_Calculate56685","JobId":"4556","Queue":"q_x86_share","Cluster":"aip","CPU_Hours":0.09,"User":"simforgetest1","Mem_GB_Hours":0.00013964653015137,"runTime":0.0075,"JobDescription":"","GPU_Cost":0,"CPU_Cost":0.045,"Mem_Cost":1.3964653015137e-5,"App_Cost":0},{"EndDate":"2020\/07\/16","GPU_Hours":0,"App":"Tanksimulator-Calculix","JobName":"","JobId":"4543","Queue":"local","Cluster":"aip","CPU_Hours":0.98666666666667,"User":"simforgetest1","Mem_GB_Hours":0.014095560709635,"runTime":0.98666666666667,"JobDescription":"Study1","GPU_Cost":0,"CPU_Cost":0.49333333333333,"Mem_Cost":0.0014095560709635,"App_Cost":0},{"EndDate":"2020\/07\/16","GPU_Hours":0,"App":"Tanksimulator-Openfoam","JobName":"","JobId":"4542","Queue":"local","Cluster":"aip","CPU_Hours":0.98777777777778,"User":"simforgetest1","Mem_GB_Hours":0.015354898240831,"runTime":0.98777777777778,"JobDescription":"Study1","GPU_Cost":0,"CPU_Cost":0.49388888888889,"Mem_Cost":0.0015354898240831,"App_Cost":0},{"EndDate":"2020\/07\/16","GPU_Hours":0,"App":"Fluent","JobName":"cubevnc","JobId":"4544","Queue":"q_x86_expr","Cluster":"aip","CPU_Hours":7.9288888888889,"User":"simforgetest1","Mem_GB_Hours":0.081555396185981,"runTime":0.99111111111111,"JobDescription":"fluent_test1","GPU_Cost":0,"CPU_Cost":3.9644444444444,"Mem_Cost":0.0081555396185981,"App_Cost":39.644444444444},{"EndDate":"2020\/07\/16","GPU_Hours":0,"App":"","JobName":"swof_\/home\/export\/base\/nsccwuxi_amd\/simforgetest1\/online1\/RenHu\/OF\/tank_Calculate11979","JobId":"4558","Queue":"q_x86_share","Cluster":"aip","CPU_Hours":0.15,"User":"simforgetest1","Mem_GB_Hours":0.00023279190063477,"runTime":0.0125,"JobDescription":"","GPU_Cost":0,"CPU_Cost":0.075,"Mem_Cost":2.3279190063477e-5,"App_Cost":0},{"EndDate":"2020\/07\/16","GPU_Hours":0,"App":"","JobName":"swof_\/home\/export\/base\/nsccwuxi_amd\/simforgetest1\/online1\/RenHu\/OF\/tank_Calculate81784","JobId":"4561","Queue":"q_x86_expr","Cluster":"aip","CPU_Hours":0.083333333333333,"User":"simforgetest1","Mem_GB_Hours":7.9049004448785e-5,"runTime":0.0069444444444444,"JobDescription":"","GPU_Cost":0,"CPU_Cost":0.041666666666667,"Mem_Cost":7.9049004448785e-6,"App_Cost":0},{"EndDate":"2020\/07\/16","GPU_Hours":0,"App":"","JobName":"swof_\/home\/export\/base\/nsccwuxi_amd\/simforgetest1\/online1\/RenHu\/OF\/tank_Calculate41465","JobId":"4562","Queue":"q_x86_expr","Cluster":"aip","CPU_Hours":0.07,"User":"simforgetest1","Mem_GB_Hours":6.6378911336263e-5,"runTime":0.0058333333333333,"JobDescription":"","GPU_Cost":0,"CPU_Cost":0.035,"Mem_Cost":6.6378911336263e-6,"App_Cost":0},{"EndDate":"2020\/07\/16","GPU_Hours":0,"App":"","JobName":"swof_\/home\/export\/base\/nsccwuxi_amd\/simforgetest1\/online1\/RenHu\/OF\/tank_Calculate49132","JobId":"4563","Queue":"q_x86_expr","Cluster":"aip","CPU_Hours":0.036666666666667,"User":"simforgetest1","Mem_GB_Hours":3.4781561957465e-5,"runTime":0.0030555555555556,"JobDescription":"","GPU_Cost":0,"CPU_Cost":0.018333333333333,"Mem_Cost":3.4781561957465e-6,"App_Cost":0},{"EndDate":"2020\/07\/16","GPU_Hours":0,"App":"","JobName":"swof_\/home\/export\/base\/nsccwuxi_amd\/simforgetest1\/online1\/RenHu\/OF\/tank_Calculate57541","JobId":"4564","Queue":"q_x86_expr","Cluster":"aip","CPU_Hours":0.15333333333333,"User":"simforgetest1","Mem_GB_Hours":0.00014545016818576,"runTime":0.012777777777778,"JobDescription":"","GPU_Cost":0,"CPU_Cost":0.076666666666667,"Mem_Cost":1.4545016818576e-5,"App_Cost":0},{"EndDate":"2020\/07\/16","GPU_Hours":0,"App":"Fluent","JobName":"cubevnc","JobId":"4545","Queue":"q_x86_share","Cluster":"aip","CPU_Hours":1.3608333333333,"User":"simforgetest1","Mem_GB_Hours":0.11287673950195,"runTime":1.3608333333333,"JobDescription":"fluent_test_2","GPU_Cost":0,"CPU_Cost":0.68041666666667,"Mem_Cost":0.011287673950195,"App_Cost":6.8041666666667},{"EndDate":"2020\/07\/16","GPU_Hours":0,"App":"","JobName":"swof_\/home\/export\/base\/nsccwuxi_amd\/simforgetest1\/online1\/RenHu\/OF\/tank_Calculate31195","JobId":"4565","Queue":"q_x86_expr","Cluster":"aip","CPU_Hours":8.7033333333333,"User":"simforgetest1","Mem_GB_Hours":0.0082586447397868,"runTime":0.72527777777778,"JobDescription":"","GPU_Cost":0,"CPU_Cost":4.3516666666667,"Mem_Cost":0.00082586447397868,"App_Cost":0},{"EndDate":"2020\/07\/16","GPU_Hours":0,"App":"","JobName":"swof_\/home\/export\/base\/nsccwuxi_amd\/simforgetest1\/online1\/RenHu\/OF\/tank_Calculate81598","JobId":"4575","Queue":"q_x86_expr","Cluster":"aip","CPU_Hours":0.94333333333333,"User":"simforgetest1","Mem_GB_Hours":0.00089423497517904,"runTime":0.078611111111111,"JobDescription":"","GPU_Cost":0,"CPU_Cost":0.47166666666667,"Mem_Cost":8.9423497517904e-5,"App_Cost":0},{"EndDate":"2020\/07\/16","GPU_Hours":0,"App":"Fluent","JobName":"cubevnc","JobId":"4559","Queue":"q_x86_expr","Cluster":"aip","CPU_Hours":7.9711111111111,"User":"simforgetest1","Mem_GB_Hours":0.0821607293023,"runTime":0.99638888888889,"JobDescription":"fluent_test1","GPU_Cost":0,"CPU_Cost":3.9855555555556,"Mem_Cost":0.00821607293023,"App_Cost":39.855555555556},{"EndDate":"2020\/07\/16","GPU_Hours":0,"App":"","JobName":"swof_\/home\/export\/base\/nsccwuxi_amd\/simforgetest1\/online1\/RenHu\/OF\/tank_Calculate72390","JobId":"4578","Queue":"q_x86_share","Cluster":"aip","CPU_Hours":14.666666666667,"User":"simforgetest1","Mem_GB_Hours":0.022743225097656,"runTime":1.2222222222222,"JobDescription":"","GPU_Cost":0,"CPU_Cost":7.3333333333333,"Mem_Cost":0.0022743225097656,"App_Cost":0},{"EndDate":"2020\/07\/16","GPU_Hours":0,"App":"Fluent","JobName":"cubevnc","JobId":"4583","Queue":"q_x86_expr","Cluster":"aip","CPU_Hours":7.9911111111111,"User":"simforgetest1","Mem_GB_Hours":0.04474240620931,"runTime":0.99888888888889,"JobDescription":"fluent_test_4","GPU_Cost":0,"CPU_Cost":3.9955555555556,"Mem_Cost":0.004474240620931,"App_Cost":39.955555555556},{"EndDate":"2020\/07\/16","GPU_Hours":0,"App":"","JobName":"swof_\/home\/export\/base\/nsccwuxi_amd\/simforgetest1\/online1\/RenHu\/OF\/tank_Pvserver68617","JobId":"4598","Queue":"q_x86_share","Cluster":"aip","CPU_Hours":0.22222222222222,"User":"simforgetest1","Mem_GB_Hours":0.00063196818033854,"runTime":0.055555555555556,"JobDescription":"","GPU_Cost":0,"CPU_Cost":0.11111111111111,"Mem_Cost":6.3196818033854e-5,"App_Cost":0},{"EndDate":"2020\/07\/16","GPU_Hours":0,"App":"","JobName":"swof_\/home\/export\/base\/nsccwuxi_amd\/simforgetest1\/online1\/RenHu\/OF\/tank_Calculate99559","JobId":"4600","Queue":"q_sw_expr","Cluster":"aip","CPU_Hours":0.15333333333333,"User":"simforgetest1","Mem_GB_Hours":0.00014530393812391,"runTime":0.012777777777778,"JobDescription":"","GPU_Cost":0,"CPU_Cost":0.046,"Mem_Cost":1.4530393812391e-5,"App_Cost":0},{"EndDate":"2020\/07\/16","GPU_Hours":0,"App":"","JobName":"swof_\/home\/export\/base\/nsccwuxi_amd\/simforgetest1\/online1\/RenHu\/OF\/tank_Pvserver63828","JobId":"4601","Queue":"q_x86_expr","Cluster":"aip","CPU_Hours":0.048888888888889,"User":"simforgetest1","Mem_GB_Hours":0.00013912624782986,"runTime":0.012222222222222,"JobDescription":"","GPU_Cost":0,"CPU_Cost":0.024444444444444,"Mem_Cost":1.3912624782986e-5,"App_Cost":0},{"EndDate":"2020\/07\/16","GPU_Hours":0,"App":"","JobName":"swof_\/home\/export\/base\/nsccwuxi_amd\/simforgetest1\/online1\/RenHu\/OF\/tank_Check36923","JobId":"4607","Queue":"q_x86_expr","Cluster":"aip","CPU_Hours":0.020277777777778,"User":"simforgetest1","Mem_GB_Hours":0.00023090044657389,"runTime":0.020277777777778,"JobDescription":"","GPU_Cost":0,"CPU_Cost":0.010138888888889,"Mem_Cost":2.3090044657389e-5,"App_Cost":0},{"EndDate":"2020\/07\/16","GPU_Hours":0,"App":"","JobName":"swof_\/home\/export\/base\/nsccwuxi_amd\/simforgetest1\/online1\/RenHu\/OF\/tank_Setfields59135","JobId":"4608","Queue":"q_x86_expr","Cluster":"aip","CPU_Hours":0.01,"User":"simforgetest1","Mem_GB_Hours":0.00011383056640625,"runTime":0.01,"JobDescription":"","GPU_Cost":0,"CPU_Cost":0.005,"Mem_Cost":1.1383056640625e-5,"App_Cost":0},{"EndDate":"2020\/07\/16","GPU_Hours":0,"App":"","JobName":"swof_\/home\/export\/base\/nsccwuxi_amd\/simforgetest1\/online1\/RenHu\/OF\/tank_Decompose1975","JobId":"4609","Queue":"q_x86_expr","Cluster":"aip","CPU_Hours":0.029444444444444,"User":"simforgetest1","Mem_GB_Hours":0.00033494313557943,"runTime":0.029444444444444,"JobDescription":"","GPU_Cost":0,"CPU_Cost":0.014722222222222,"Mem_Cost":3.3494313557943e-5,"App_Cost":0},{"EndDate":"2020\/07\/16","GPU_Hours":0,"App":"","JobName":"swof_\/home\/export\/base\/nsccwuxi_amd\/simforgetest1\/online1\/RenHu\/OF\/tank_Pvserver26535","JobId":"4616","Queue":"q_x86_expr","Cluster":"aip","CPU_Hours":0.023333333333333,"User":"simforgetest1","Mem_GB_Hours":6.6401163736979e-5,"runTime":0.0058333333333333,"JobDescription":"","GPU_Cost":0,"CPU_Cost":0.011666666666667,"Mem_Cost":6.6401163736979e-6,"App_Cost":0},{"EndDate":"2020\/07\/16","GPU_Hours":0,"App":"","JobName":"swof_\/home\/export\/base\/nsccwuxi_amd\/simforgetest1\/online1\/RenHu\/OF\/tank_Pvserver36006","JobId":"4617","Queue":"q_x86_expr","Cluster":"aip","CPU_Hours":0.026666666666667,"User":"simforgetest1","Mem_GB_Hours":0,"runTime":0.0066666666666667,"JobDescription":"","GPU_Cost":0,"CPU_Cost":0.013333333333333,"Mem_Cost":0,"App_Cost":0},{"EndDate":"2020\/07\/16","GPU_Hours":0,"App":"ParaView","JobName":"cubevnc","JobId":"4613","Queue":"local","Cluster":"aip","CPU_Hours":0.22555555555556,"User":"simforgetest1","Mem_GB_Hours":0.34263976626926,"runTime":0.22555555555556,"JobDescription":"paraview_rh","GPU_Cost":0,"CPU_Cost":0.11277777777778,"Mem_Cost":0.034263976626926,"App_Cost":0.11277777777778},{"EndDate":"2020\/07\/16","GPU_Hours":0,"App":"","JobName":"swof_\/home\/export\/base\/nsccwuxi_amd\/simforgetest1\/online1\/RenHu\/OF\/tank_Pvserver45845","JobId":"4618","Queue":"q_x86_share","Cluster":"aip","CPU_Hours":0.041111111111111,"User":"simforgetest1","Mem_GB_Hours":0.0001169925265842,"runTime":0.010277777777778,"JobDescription":"","GPU_Cost":0,"CPU_Cost":0.020555555555556,"Mem_Cost":1.169925265842e-5,"App_Cost":0},{"EndDate":"2020\/07\/16","GPU_Hours":0,"App":"ICEM-CFD","JobName":"cubevnc","JobId":"4619","Queue":"local","Cluster":"aip","CPU_Hours":0.040555555555556,"User":"simforgetest1","Mem_GB_Hours":0.0084553654988607,"runTime":0.040555555555556,"JobDescription":"icem_rh","GPU_Cost":0,"CPU_Cost":0.020277777777778,"Mem_Cost":0.00084553654988607,"App_Cost":0.20277777777778},{"EndDate":"2020\/07\/16","GPU_Hours":0,"App":"","JobName":"swof_\/home\/export\/base\/nsccwuxi_amd\/simforgetest1\/online1\/RenHu\/OF\/tank_Calculate38973","JobId":"4612","Queue":"q_sw_expr","Cluster":"aip","CPU_Hours":8.2333333333333,"User":"simforgetest1","Mem_GB_Hours":0.007804807027181,"runTime":0.68611111111111,"JobDescription":"","GPU_Cost":0,"CPU_Cost":2.47,"Mem_Cost":0.0007804807027181,"App_Cost":0},{"EndDate":"2020\/07\/16","GPU_Hours":0,"App":"","JobName":"swof_\/home\/export\/base\/nsccwuxi_amd\/simforgetest1\/online1\/RenHu\/OF\/tank_Calculate83658","JobId":"4622","Queue":"q_sw_expr","Cluster":"aip","CPU_Hours":0.0033333333333333,"User":"simforgetest1","Mem_GB_Hours":3.1619601779514e-6,"runTime":0.00027777777777778,"JobDescription":"","GPU_Cost":0,"CPU_Cost":0.001,"Mem_Cost":3.1619601779514e-7,"App_Cost":0},{"EndDate":"2020\/07\/16","GPU_Hours":0,"App":"","JobName":"swof_\/home\/export\/base\/nsccwuxi_amd\/simforgetest1\/online1\/RenHu\/OF\/tank_Calculate80838","JobId":"4623","Queue":"q_sw_expr","Cluster":"aip","CPU_Hours":10.906666666667,"User":"simforgetest1","Mem_GB_Hours":0.010345933702257,"runTime":0.90888888888889,"JobDescription":"","GPU_Cost":0,"CPU_Cost":3.272,"Mem_Cost":0.0010345933702257,"App_Cost":0},{"EndDate":"2020\/07\/16","GPU_Hours":0,"App":"","JobName":"swof_\/home\/export\/base\/nsccwuxi_amd\/simforgetest1\/online1\/RenHu\/OF\/tank_Calculate88594","JobId":"4635","Queue":"q_sw_expr","Cluster":"aip","CPU_Hours":0.79666666666667,"User":"simforgetest1","Mem_GB_Hours":0.00075646824306912,"runTime":0.066388888888889,"JobDescription":"","GPU_Cost":0,"CPU_Cost":0.239,"Mem_Cost":7.5646824306912e-5,"App_Cost":0},{"EndDate":"2020\/07\/16","GPU_Hours":0,"App":"PointWise","JobName":"cubevnc","JobId":"4579","Queue":"local","Cluster":"aip","CPU_Hours":12.855555555556,"User":"simforgetest1","Mem_GB_Hours":18.148056115044,"runTime":12.855555555556,"JobDescription":"PW_test_2","GPU_Cost":0,"CPU_Cost":6.4277777777778,"Mem_Cost":1.8148056115044,"App_Cost":64.277777777778},{"EndDate":"2020\/07\/16","GPU_Hours":0,"App":"PointWise","JobName":"cubevnc","JobId":"4567","Queue":"local","Cluster":"aip","CPU_Hours":14.322777777778,"User":"simforgetest1","Mem_GB_Hours":21.960547203488,"runTime":14.322777777778,"JobDescription":"PW_test","GPU_Cost":0,"CPU_Cost":7.1613888888889,"Mem_Cost":2.1960547203488,"App_Cost":71.613888888889},{"EndDate":"2020\/07\/17","GPU_Hours":0,"App":"TankSim","JobName":"cubevnc","JobId":"4535","Queue":"local","Cluster":"aip","CPU_Hours":26.7275,"User":"simforgetest1","Mem_GB_Hours":5.0627927398682,"runTime":26.7275,"JobDescription":"tanksimtest02","GPU_Cost":0,"CPU_Cost":13.36375,"Mem_Cost":0.50627927398682,"App_Cost":26.7275},{"EndDate":"2020\/07\/17","GPU_Hours":0,"App":"TankSim","JobName":"cubevnc","JobId":"4537","Queue":"local","Cluster":"aip","CPU_Hours":26.645833333333,"User":"simforgetest1","Mem_GB_Hours":5.239738702774,"runTime":26.645833333333,"JobDescription":"cylinder","GPU_Cost":0,"CPU_Cost":13.322916666667,"Mem_Cost":0.5239738702774,"App_Cost":26.645833333333},{"EndDate":"2020\/07\/17","GPU_Hours":0,"App":"Abaqus2017","JobName":"Job-160132","JobId":"4817","Queue":"q_x86_share","Cluster":"aip","CPU_Hours":0.0011111111111111,"User":"simforgetest1","Mem_GB_Hours":6.5655178493924e-6,"runTime":0.00055555555555556,"JobDescription":"Job-160132-e1","GPU_Cost":0,"CPU_Cost":0.00055555555555556,"Mem_Cost":6.5655178493924e-7,"App_Cost":0.0055555555555556},{"EndDate":"2020\/07\/17","GPU_Hours":0,"App":"Abaqus2017","JobName":"Job-160553","JobId":"4818","Queue":"q_x86_share","Cluster":"aip","CPU_Hours":0.27055555555556,"User":"simforgetest1","Mem_GB_Hours":0.0041830507914225,"runTime":0.13527777777778,"JobDescription":"Job-160553-e1","GPU_Cost":0,"CPU_Cost":0.13527777777778,"Mem_Cost":0.00041830507914225,"App_Cost":1.3527777777778},{"EndDate":"2020\/07\/17","GPU_Hours":0,"App":"ICEM-CFD","JobName":"cubevnc","JobId":"4760","Queue":"local","Cluster":"aip","CPU_Hours":19.263333333333,"User":"simforgetest1","Mem_GB_Hours":5.4014256159465,"runTime":19.263333333333,"JobDescription":"icem_rh","GPU_Cost":0,"CPU_Cost":9.6316666666667,"Mem_Cost":0.54014256159465,"App_Cost":96.316666666667},{"EndDate":"2020\/07\/17","GPU_Hours":0,"App":"StarCCM","JobName":"cubevnc","JobId":"4538","Queue":"local","Cluster":"aip","CPU_Hours":99.722222222222,"User":"simforgetest1","Mem_GB_Hours":21.806342601776,"runTime":24.930555555556,"JobDescription":"starccm_test_2","GPU_Cost":0,"CPU_Cost":49.861111111111,"Mem_Cost":2.1806342601776,"App_Cost":498.61111111111},{"EndDate":"2020\/07\/17","GPU_Hours":0,"App":"StarCCM","JobName":"cubevnc","JobId":"4524","Queue":"local","Cluster":"aip","CPU_Hours":448.75333333333,"User":"simforgetest1","Mem_GB_Hours":34.983675064511,"runTime":37.396111111111,"JobDescription":"starccm_test","GPU_Cost":0,"CPU_Cost":224.37666666667,"Mem_Cost":3.4983675064511,"App_Cost":2243.7666666667},{"EndDate":"2020\/07\/17","GPU_Hours":0,"App":"Fluent","JobName":"cubevnc","JobId":"4546","Queue":"q_x86_share","Cluster":"aip","CPU_Hours":660.24666666667,"User":"simforgetest1","Mem_GB_Hours":2.4218833563063,"runTime":27.510277777778,"JobDescription":"test","GPU_Cost":0,"CPU_Cost":330.12333333333,"Mem_Cost":0.24218833563063,"App_Cost":3301.2333333333},{"EndDate":"2020\/07\/17","GPU_Hours":0,"App":"ParaView","JobName":"cubevnc","JobId":"4525","Queue":"local","Cluster":"aip","CPU_Hours":28.314444444444,"User":"simforgetest1","Mem_GB_Hours":18.869419593811,"runTime":28.314444444444,"JobDescription":"case1","GPU_Cost":0,"CPU_Cost":14.157222222222,"Mem_Cost":1.8869419593811,"App_Cost":14.157222222222},{"EndDate":"2020\/07\/17","GPU_Hours":0,"App":"ICEM-CFD","JobName":"cubevnc","JobId":"4820","Queue":"local","Cluster":"aip","CPU_Hours":0.062222222222222,"User":"simforgetest1","Mem_GB_Hours":0.011711764865451,"runTime":0.062222222222222,"JobDescription":"ICMCFD","GPU_Cost":0,"CPU_Cost":0.031111111111111,"Mem_Cost":0.0011711764865451,"App_Cost":0.31111111111111},{"EndDate":"2020\/07\/17","GPU_Hours":0,"App":"ParaView","JobName":"cubevnc","JobId":"4824","Queue":"local","Cluster":"aip","CPU_Hours":0.52361111111111,"User":"simforgetest1","Mem_GB_Hours":0.007160743077596,"runTime":0.52361111111111,"JobDescription":"54","GPU_Cost":0,"CPU_Cost":0.26180555555556,"Mem_Cost":0.0007160743077596,"App_Cost":0.26180555555556},{"EndDate":"2020\/07\/17","GPU_Hours":0,"App":"Fluent","JobName":"cubevnc","JobId":"4826","Queue":"q_x86_expr","Cluster":"aip","CPU_Hours":1.3130555555556,"User":"simforgetest1","Mem_GB_Hours":0.092464468214247,"runTime":1.3130555555556,"JobDescription":"test11","GPU_Cost":0,"CPU_Cost":0.65652777777778,"Mem_Cost":0.0092464468214247,"App_Cost":6.5652777777778},{"EndDate":"2020\/07\/22","GPU_Hours":0,"App":"Fluent","JobName":"cubevnc","JobId":"4582","Queue":"q_x86_share","Cluster":"aip","CPU_Hours":1168.3933333333,"User":"simforgetest1","Mem_GB_Hours":0,"runTime":146.04916666667,"JobDescription":"fluent_test_3","GPU_Cost":0,"CPU_Cost":584.19666666667,"Mem_Cost":0,"App_Cost":5841.9666666667},{"EndDate":"2020\/07\/22","GPU_Hours":0,"App":"ICEM-CFD","JobName":"cubevnc","JobId":"4845","Queue":"local","Cluster":"aip","CPU_Hours":118.44527777778,"User":"simforgetest1","Mem_GB_Hours":1.9478515338898,"runTime":118.44527777778,"JobDescription":"icemcfd_of_2","GPU_Cost":0,"CPU_Cost":59.222638888889,"Mem_Cost":0.19478515338898,"App_Cost":592.22638888889},{"EndDate":"2020\/07\/22","GPU_Hours":0,"App":"LS-DYNA","JobName":"\/home\/export\/online1\/simforgetest1\/betatest\/LSDYNA\/\u8f66\u9876\u51b2\u51fb\/000_yaris_dynamic_roof_crush_01.k","JobId":"4815","Queue":"q_x86_share","Cluster":"aip","CPU_Hours":247.92222222222,"User":"simforgetest1","Mem_GB_Hours":0,"runTime":123.96111111111,"JobDescription":"000_yaris_dynamic_roof_crush_01.k","GPU_Cost":0,"CPU_Cost":123.96111111111,"Mem_Cost":0,"App_Cost":1239.6111111111},{"EndDate":"2020\/07\/22","GPU_Hours":0,"App":"Abaqus","JobName":"cubevnc","JobId":"4816","Queue":"local","Cluster":"aip","CPU_Hours":123.91083333333,"User":"simforgetest1","Mem_GB_Hours":85.601349579493,"runTime":123.91083333333,"JobDescription":"abaqustest","GPU_Cost":0,"CPU_Cost":61.955416666667,"Mem_Cost":8.5601349579493,"App_Cost":619.55416666667},{"EndDate":"2020\/07\/22","GPU_Hours":0,"App":"LSPrePost","JobName":"cubevnc","JobId":"4814","Queue":"local","Cluster":"aip","CPU_Hours":123.97694444444,"User":"simforgetest1","Mem_GB_Hours":72.984199602339,"runTime":123.97694444444,"JobDescription":"dynadai","GPU_Cost":0,"CPU_Cost":61.988472222222,"Mem_Cost":7.2984199602339,"App_Cost":0},{"EndDate":"2020\/07\/22","GPU_Hours":0,"App":"ParaView","JobName":"cubevnc","JobId":"4540","Queue":"local","Cluster":"aip","CPU_Hours":150.525,"User":"simforgetest1","Mem_GB_Hours":91.253599262238,"runTime":150.525,"JobDescription":"checkmesh01","GPU_Cost":0,"CPU_Cost":75.2625,"Mem_Cost":9.1253599262238,"App_Cost":75.2625},{"EndDate":"2020\/07\/22","GPU_Hours":0,"App":"StarCCM","JobName":"cubevnc","JobId":"5573","Queue":"q_x86_share_plus","Cluster":"aip","CPU_Hours":0.073888888888889,"User":"simforgetest1","Mem_GB_Hours":0.022875356674194,"runTime":0.036944444444444,"JobDescription":"starccm_test","GPU_Cost":0,"CPU_Cost":0.036944444444444,"Mem_Cost":0.0022875356674194,"App_Cost":0.36944444444444},{"EndDate":"2020\/07\/22","GPU_Hours":0,"App":"StarCCM","JobName":"cubevnc","JobId":"5574","Queue":"q_x86_share_plus","Cluster":"aip","CPU_Hours":0.047222222222222,"User":"simforgetest1","Mem_GB_Hours":0.014985720316569,"runTime":0.023611111111111,"JobDescription":"starccm_test3","GPU_Cost":0,"CPU_Cost":0.023611111111111,"Mem_Cost":0.0014985720316569,"App_Cost":0.23611111111111},{"EndDate":"2020\/07\/22","GPU_Hours":0,"App":"StarCCM","JobName":"cubevnc","JobId":"5575","Queue":"q_x86_share_plus","Cluster":"aip","CPU_Hours":0.033333333333333,"User":"simforgetest1","Mem_GB_Hours":0.010162734985352,"runTime":0.016666666666667,"JobDescription":"starccm_test3","GPU_Cost":0,"CPU_Cost":0.016666666666667,"Mem_Cost":0.0010162734985352,"App_Cost":0.16666666666667},{"EndDate":"2020\/07\/22","GPU_Hours":0,"App":"StarCCM","JobName":"cubevnc","JobId":"5576","Queue":"q_x86_share_plus","Cluster":"aip","CPU_Hours":0.75833333333333,"User":"simforgetest1","Mem_GB_Hours":0.03671334584554,"runTime":0.058333333333333,"JobDescription":"starccm_test3","GPU_Cost":0,"CPU_Cost":0.37916666666667,"Mem_Cost":0.003671334584554,"App_Cost":3.7916666666667},{"EndDate":"2020\/07\/22","GPU_Hours":0,"App":"StarCCM","JobName":"cubevnc","JobId":"5577","Queue":"q_x86_share_plus","Cluster":"aip","CPU_Hours":0.96527777777778,"User":"simforgetest1","Mem_GB_Hours":0.024605480829875,"runTime":0.038611111111111,"JobDescription":"starccm_test3","GPU_Cost":0,"CPU_Cost":0.48263888888889,"Mem_Cost":0.0024605480829875,"App_Cost":4.8263888888889},{"EndDate":"2020\/07\/22","GPU_Hours":0,"App":"StarCCM","JobName":"cubevnc","JobId":"5572","Queue":"q_x86_share_plus","Cluster":"aip","CPU_Hours":5.2180555555556,"User":"simforgetest1","Mem_GB_Hours":0.25711985164218,"runTime":0.40138888888889,"JobDescription":"starccm_test2","GPU_Cost":0,"CPU_Cost":2.6090277777778,"Mem_Cost":0.025711985164218,"App_Cost":26.090277777778},{"EndDate":"2020\/07\/22","GPU_Hours":0,"App":"StarCCM","JobName":"cubevnc","JobId":"5578","Queue":"q_x86_expr_plus","Cluster":"aip","CPU_Hours":1.8525,"User":"simforgetest1","Mem_GB_Hours":0.090088262557983,"runTime":0.1425,"JobDescription":"starccm_test3","GPU_Cost":0,"CPU_Cost":0.92625,"Mem_Cost":0.0090088262557983,"App_Cost":9.2625},{"EndDate":"2020\/07\/22","GPU_Hours":0,"App":"StarCCM","JobName":"cubevnc","JobId":"5580","Queue":"q_x86_expr_plus","Cluster":"aip","CPU_Hours":0.0033333333333333,"User":"simforgetest1","Mem_GB_Hours":1.9969940185547e-5,"runTime":0.0016666666666667,"JobDescription":"starccm_test2","GPU_Cost":0,"CPU_Cost":0.0016666666666667,"Mem_Cost":1.9969940185547e-6,"App_Cost":0.016666666666667},{"EndDate":"2020\/07\/22","GPU_Hours":0,"App":"StarCCM","JobName":"cubevnc","JobId":"5581","Queue":"q_x86_expr_plus","Cluster":"aip","CPU_Hours":0.12166666666667,"User":"simforgetest1","Mem_GB_Hours":0.0051257578531901,"runTime":0.060833333333333,"JobDescription":"starccm_test1","GPU_Cost":0,"CPU_Cost":0.060833333333333,"Mem_Cost":0.00051257578531901,"App_Cost":0.60833333333333},{"EndDate":"2020\/07\/22","GPU_Hours":0,"App":"StarCCM","JobName":"cubevnc","JobId":"5582","Queue":"q_x86_share_plus","Cluster":"aip","CPU_Hours":0.0055555555555556,"User":"simforgetest1","Mem_GB_Hours":0.00022815068562826,"runTime":0.0027777777777778,"JobDescription":"starccm_test1","GPU_Cost":0,"CPU_Cost":0.0027777777777778,"Mem_Cost":2.2815068562826e-5,"App_Cost":0.027777777777778},{"EndDate":"2020\/07\/22","GPU_Hours":0,"App":"StarCCM","JobName":"cubevnc","JobId":"5583","Queue":"q_x86_share_plus","Cluster":"aip","CPU_Hours":0.0055555555555556,"User":"simforgetest1","Mem_GB_Hours":0.00022799173990885,"runTime":0.0027777777777778,"JobDescription":"starccm_test","GPU_Cost":0,"CPU_Cost":0.0027777777777778,"Mem_Cost":2.2799173990885e-5,"App_Cost":0.027777777777778},{"EndDate":"2020\/07\/22","GPU_Hours":0,"App":"StarCCM","JobName":"cubevnc","JobId":"5584","Queue":"q_x86_share_plus","Cluster":"aip","CPU_Hours":0.0125,"User":"simforgetest1","Mem_GB_Hours":0.0002630615234375,"runTime":0.0025,"JobDescription":"starccm_test2","GPU_Cost":0,"CPU_Cost":0.00625,"Mem_Cost":2.630615234375e-5,"App_Cost":0.0625},{"EndDate":"2020\/07\/22","GPU_Hours":0,"App":"StarCCM","JobName":"cubevnc","JobId":"5585","Queue":"q_x86_share_plus","Cluster":"aip","CPU_Hours":0.0058333333333333,"User":"simforgetest1","Mem_GB_Hours":2.1006266276042e-5,"runTime":0.0019444444444444,"JobDescription":"starccm_test2","GPU_Cost":0,"CPU_Cost":0.0029166666666667,"Mem_Cost":2.1006266276042e-6,"App_Cost":0.029166666666667},{"EndDate":"2020\/07\/22","GPU_Hours":0,"App":"StarCCM","JobName":"cubevnc","JobId":"5586","Queue":"q_x86_share_plus","Cluster":"aip","CPU_Hours":0.0055555555555556,"User":"simforgetest1","Mem_GB_Hours":0.00022789637247721,"runTime":0.0027777777777778,"JobDescription":"starccm_test2","GPU_Cost":0,"CPU_Cost":0.0027777777777778,"Mem_Cost":2.2789637247721e-5,"App_Cost":0.027777777777778},{"EndDate":"2020\/07\/22","GPU_Hours":0,"App":"StarCCM","JobName":"cubevnc","JobId":"5587","Queue":"q_x86_share_plus","Cluster":"aip","CPU_Hours":0.17277777777778,"User":"simforgetest1","Mem_GB_Hours":0.055472394095527,"runTime":0.086388888888889,"JobDescription":"starccm_test2","GPU_Cost":0,"CPU_Cost":0.086388888888889,"Mem_Cost":0.0055472394095527,"App_Cost":0.86388888888889},{"EndDate":"2020\/07\/22","GPU_Hours":0,"App":"StarCCM","JobName":"cubevnc","JobId":"5588","Queue":"q_x86_share_plus","Cluster":"aip","CPU_Hours":0.017222222222222,"User":"simforgetest1","Mem_GB_Hours":0.00072349442376031,"runTime":0.0086111111111111,"JobDescription":"starccm_test2","GPU_Cost":0,"CPU_Cost":0.0086111111111111,"Mem_Cost":7.2349442376031e-5,"App_Cost":0.086111111111111},{"EndDate":"2020\/07\/22","GPU_Hours":0,"App":"StarCCM","JobName":"cubevnc","JobId":"5590","Queue":"q_x86_share_plus","Cluster":"aip","CPU_Hours":0.10555555555556,"User":"simforgetest1","Mem_GB_Hours":0.033692985110813,"runTime":0.052777777777778,"JobDescription":"starccm_test3","GPU_Cost":0,"CPU_Cost":0.052777777777778,"Mem_Cost":0.0033692985110813,"App_Cost":0.52777777777778},{"EndDate":"2020\/07\/22","GPU_Hours":0,"App":"StarCCM","JobName":"cubevnc","JobId":"5589","Queue":"q_x86_share_plus","Cluster":"aip","CPU_Hours":0.16777777777778,"User":"simforgetest1","Mem_GB_Hours":0.05232335196601,"runTime":0.083888888888889,"JobDescription":"starccm_test2","GPU_Cost":0,"CPU_Cost":0.083888888888889,"Mem_Cost":0.005232335196601,"App_Cost":0.83888888888889},{"EndDate":"2020\/07\/23","GPU_Hours":0,"App":"StarCCM","JobName":"cubevnc","JobId":"5603","Queue":"q_x86_expr_plus","Cluster":"aip","CPU_Hours":0.061666666666667,"User":"simforgetest1","Mem_GB_Hours":0.020580647786458,"runTime":0.030833333333333,"JobDescription":"starccm_test3","GPU_Cost":0,"CPU_Cost":0.030833333333333,"Mem_Cost":0.0020580647786458,"App_Cost":0.30833333333333},{"EndDate":"2020\/07\/23","GPU_Hours":0,"App":"StarCCM","JobName":"cubevnc","JobId":"5606","Queue":"q_x86_expr_plus","Cluster":"aip","CPU_Hours":0.1925,"User":"simforgetest1","Mem_GB_Hours":0.012849211162991,"runTime":0.021388888888889,"JobDescription":"starccm_test3","GPU_Cost":0,"CPU_Cost":0.09625,"Mem_Cost":0.0012849211162991,"App_Cost":0.9625},{"EndDate":"2020\/07\/23","GPU_Hours":0,"App":"StarCCM","JobName":"cubevnc","JobId":"5608","Queue":"q_x86_expr_plus","Cluster":"aip","CPU_Hours":0.1475,"User":"simforgetest1","Mem_GB_Hours":0.010095949172974,"runTime":0.016388888888889,"JobDescription":"starccm_test3","GPU_Cost":0,"CPU_Cost":0.07375,"Mem_Cost":0.0010095949172974,"App_Cost":0.7375},{"EndDate":"2020\/07\/23","GPU_Hours":0,"App":"StarCCM","JobName":"cubevnc","JobId":"5604","Queue":"q_x86_expr_plus","Cluster":"aip","CPU_Hours":22.793333333333,"User":"simforgetest1","Mem_GB_Hours":1.2004404703776,"runTime":1.7533333333333,"JobDescription":"starccm_test4","GPU_Cost":0,"CPU_Cost":11.396666666667,"Mem_Cost":0.12004404703776,"App_Cost":113.96666666667},{"EndDate":"2020\/07\/23","GPU_Hours":0.31388888888889,"App":"PointWise","JobName":"cubevnc","JobId":"5628","Queue":"local","Cluster":"aip","CPU_Hours":0.31388888888889,"User":"simforgetest1","Mem_GB_Hours":0.17188908259074,"runTime":0.31388888888889,"JobDescription":"PW_test","GPU_Cost":0.15694444444444,"CPU_Cost":0.15694444444444,"Mem_Cost":0.017188908259074,"App_Cost":1.5694444444444},{"EndDate":"2020\/07\/23","GPU_Hours":0.23055555555556,"App":"ICEM-CFD","JobName":"cubevnc","JobId":"5635","Queue":"local","Cluster":"aip","CPU_Hours":0.23055555555556,"User":"simforgetest1","Mem_GB_Hours":0.067344167497423,"runTime":0.23055555555556,"JobDescription":"ICEMCFD_test","GPU_Cost":0.11527777777778,"CPU_Cost":0.11527777777778,"Mem_Cost":0.0067344167497423,"App_Cost":1.1527777777778},{"EndDate":"2020\/07\/23","GPU_Hours":0.52444444444444,"App":"PointWise","JobName":"cubevnc","JobId":"5631","Queue":"local","Cluster":"aip","CPU_Hours":0.52444444444444,"User":"simforgetest1","Mem_GB_Hours":1.8539250352648,"runTime":0.52444444444444,"JobDescription":"PW_test2","GPU_Cost":0.26222222222222,"CPU_Cost":0.26222222222222,"Mem_Cost":0.18539250352648,"App_Cost":2.6222222222222},{"EndDate":"2020\/07\/23","GPU_Hours":0.087222222222222,"App":"ICEM-CFD","JobName":"cubevnc","JobId":"5636","Queue":"local","Cluster":"aip","CPU_Hours":0.087222222222222,"User":"simforgetest1","Mem_GB_Hours":0.020217785305447,"runTime":0.087222222222222,"JobDescription":"ICEMCFDtest2","GPU_Cost":0.043611111111111,"CPU_Cost":0.043611111111111,"Mem_Cost":0.0020217785305447,"App_Cost":0.43611111111111},{"EndDate":"2020\/07\/23","GPU_Hours":0,"App":"StarCCM","JobName":"cubevnc","JobId":"5637","Queue":"q_x86_expr_plus","Cluster":"aip","CPU_Hours":0.12277777777778,"User":"simforgetest1","Mem_GB_Hours":0.0018798891703288,"runTime":0.0094444444444444,"JobDescription":"starccm_test2","GPU_Cost":0,"CPU_Cost":0.061388888888889,"Mem_Cost":0.00018798891703288,"App_Cost":0.61388888888889},{"EndDate":"2020\/07\/23","GPU_Hours":0,"App":"","JobName":"swof_\/home\/export\/base\/nsccwuxi_amd\/simforgetest1\/WORK\/ZHL\/tank\/tank_Mesh4111","JobId":"5639","Queue":"q_x86_expr","Cluster":"aip","CPU_Hours":0.020833333333333,"User":"simforgetest1","Mem_GB_Hours":0.00024112065633138,"runTime":0.020833333333333,"JobDescription":"","GPU_Cost":0,"CPU_Cost":0.010416666666667,"Mem_Cost":2.4112065633138e-5,"App_Cost":0},{"EndDate":"2020\/07\/23","GPU_Hours":0,"App":"","JobName":"swof_\/home\/export\/base\/nsccwuxi_amd\/simforgetest1\/WORK\/ZHL\/tank\/tank_Mesh_starcd_post4111","JobId":"5640","Queue":"q_x86_expr","Cluster":"aip","CPU_Hours":0.0022222222222222,"User":"simforgetest1","Mem_GB_Hours":2.5736490885417e-5,"runTime":0.0022222222222222,"JobDescription":"","GPU_Cost":0,"CPU_Cost":0.0011111111111111,"Mem_Cost":2.5736490885417e-6,"App_Cost":0},{"EndDate":"2020\/07\/23","GPU_Hours":0,"App":"StarCCM","JobName":"cubevnc","JobId":"5638","Queue":"q_x86_expr_plus","Cluster":"aip","CPU_Hours":11.418333333333,"User":"simforgetest1","Mem_GB_Hours":0.90865269343058,"runTime":0.87833333333333,"JobDescription":"starccm_test2","GPU_Cost":0,"CPU_Cost":5.7091666666667,"Mem_Cost":0.090865269343058,"App_Cost":57.091666666667},{"EndDate":"2020\/07\/23","GPU_Hours":0,"App":"StarCCM","JobName":"cubevnc","JobId":"5634","Queue":"q_x86_expr_plus","Cluster":"aip","CPU_Hours":5.3791666666667,"User":"simforgetest1","Mem_GB_Hours":0.85380809783936,"runTime":1.0758333333333,"JobDescription":"starccm_test","GPU_Cost":0,"CPU_Cost":2.6895833333333,"Mem_Cost":0.085380809783936,"App_Cost":26.895833333333},{"EndDate":"2020\/07\/23","GPU_Hours":0,"App":"StarCCM","JobName":"cubevnc","JobId":"5642","Queue":"q_x86_expr_plus","Cluster":"aip","CPU_Hours":2.0555555555556,"User":"simforgetest1","Mem_GB_Hours":0.39379590352376,"runTime":0.41111111111111,"JobDescription":"starccm_test","GPU_Cost":0,"CPU_Cost":1.0277777777778,"Mem_Cost":0.039379590352376,"App_Cost":10.277777777778},{"EndDate":"2020\/07\/23","GPU_Hours":0,"App":"Fluent","JobName":"cubevnc","JobId":"5643","Queue":"q_x86_expr","Cluster":"aip","CPU_Hours":8.0333333333333,"User":"simforgetest1","Mem_GB_Hours":0.083683109283447,"runTime":1.0041666666667,"JobDescription":"fluent_test","GPU_Cost":0,"CPU_Cost":4.0166666666667,"Mem_Cost":0.0083683109283447,"App_Cost":40.166666666667}],"User":"simforgetest1"}